
!!! Generated by BlenderFDS 2.0.0 on Blender 2.63 (sub 17)

! Blender file: /home/egissi/Documenti/20100423 Genova, BlenderFDS/releases/BlenderFDS_2.0.0/examples/uni-build/uni-build.blend
! Date: Mon, 20 Aug 2012 12:05:38

&HEAD CHID='uni-build_s1', TITLE='University building, scenario 1', /

!!! External config file

&TIME T_END=0.0 /

&REAC ID='polyurethane', SOOT_YIELD=0.1875, CO_YIELD=0.02775,
      C=1.0, H=1.75, O=0.25, N=0.065,
      HEAT_OF_COMBUSTION=25300., IDEAL=.TRUE. /
      Gas phase reaction: polyurethane flexible foam (means) from
      Tewarson SFPE Handbook 3rd ed,
      SFPE handbook table 3-4.14, p. 3-112.

&MATL ID='Gypsum plaster', CONDUCTIVITY=0.48,
      SPECIFIC_HEAT=0.84, DENSITY=1440. /
      Thermo-physical properties of gypsum plaster.

&PROP ID='acme smoke detector', QUANTITY='CHAMBER OBSCURATION',
      LENGTH=1.8, ACTIVATION_OBSCURATION=3.28 /
      
&ISOF QUANTITY='TEMPERATURE', VALUE(1)=60. /
&ISOF QUANTITY='VISIBILITY', VALUE(1)=10. /
&BNDF QUANTITY='ADIABATIC SURFACE TEMPERATURE' /

!!! Boundary condition defs

! Burner
&SURF ID='Burner', FYI='1500 kW on 5 m2, fast fire', RGB=204,0,2,
      HRRPUA=300.00, TAU_Q=-230.63, /
! Glass pane
&SURF ID='Glass pane', RGB=0,204,201, TRANSPARENCY=0.200, /
! Gypsum wall
&SURF ID='Gypsum wall', RGB=184,186,136, MATL_ID='Gypsum plaster', THICKNESS=0.03, /

!!! Computational domain

! Domain +1, 1008000 cells, cell size is 0.200 x 0.194 x 0.216, from bounding box, in 0.000 s
&MESH ID='Domain +1', IJK=105,160,60,
      XB=10.500,31.500,-14.817,16.183,0.000,12.968, /
! Domain -1, 1008000 cells, cell size is 0.200 x 0.194 x 0.216, from bounding box, in 0.000 s
&MESH ID='Domain -1', IJK=105,160,60,
      XB=-31.500,-10.500,-14.817,16.183,0.000,12.968, /
! Domain 0, 1008000 cells, cell size is 0.200 x 0.194 x 0.216, from bounding box, in 0.000 s
&MESH ID='Domain 0', IJK=105,160,60,
      XB=-10.500,10.500,-14.817,16.183,0.000,12.968, /

!!! Geometry

! Burner, from bounding box, in 0.000 s
&OBST ID='Burner', FYI='5 m2 on fire', SURF_ID='Burner',
      XB=6.500,7.500,-1.500,-0.500,0.000,1.000, /
! Columns, from voxelization (98 voxels, voxel size is 0.060), in 2.172 s
&OBST ID='Columns_0', SURF_ID='Gypsum wall',
      XB=9.809,10.231,1.353,2.255,4.389,7.091, /
&OBST ID='Columns_1', SURF_ID='Gypsum wall',
      XB=-5.131,-4.829,-13.707,-13.345,4.389,7.511, /
&OBST ID='Columns_2', SURF_ID='Gypsum wall',
      XB=-15.211,-14.789,-2.247,-1.345,4.389,7.091, /
&OBST ID='Columns_3', SURF_ID='Gypsum wall',
      XB=-15.151,-14.849,-13.707,-13.345,4.389,7.511, /
&OBST ID='Columns_4', SURF_ID='Gypsum wall',
      XB=-20.191,-19.769,-2.247,-1.345,4.389,7.091, /
&OBST ID='Columns_5', SURF_ID='Gypsum wall',
      XB=4.829,5.131,-13.707,-13.345,0.009,3.071, /
&OBST ID='Columns_6', SURF_ID='Gypsum wall',
      XB=2.069,2.251,13.413,13.715,4.389,7.511, /
&OBST ID='Columns_7', SURF_ID='Gypsum wall',
      XB=-25.231,-24.809,1.353,2.255,4.389,7.091, /
&OBST ID='Columns_8', SURF_ID='Gypsum wall',
      XB=4.769,5.191,-2.247,-1.345,0.009,2.711, /
&OBST ID='Columns_9', SURF_ID='Gypsum wall',
      XB=9.869,10.171,13.353,13.715,0.009,3.071, /
&OBST ID='Columns_10', SURF_ID='Gypsum wall',
      XB=-2.311,-2.069,13.413,13.715,4.389,7.511, /
&OBST ID='Columns_11', SURF_ID='Gypsum wall',
      XB=14.789,15.211,-2.247,-1.345,0.009,2.711, /
&OBST ID='Columns_12', SURF_ID='Gypsum wall',
      XB=4.769,5.191,1.353,2.255,0.009,2.711, /
&OBST ID='Columns_13', SURF_ID='Gypsum wall',
      XB=29.849,30.151,1.353,1.655,4.389,7.511, /
&OBST ID='Columns_14', SURF_ID='Gypsum wall',
      XB=-5.191,-4.769,-2.247,-1.345,4.389,7.091, /
&OBST ID='Columns_15', SURF_ID='Gypsum wall',
      XB=-25.171,-24.869,-1.647,-1.345,0.009,3.071, /
&OBST ID='Columns_16', SURF_ID='Gypsum wall',
      XB=-30.211,-29.849,13.353,13.715,4.389,7.511, /
&OBST ID='Columns_17', SURF_ID='Gypsum wall',
      XB=-10.231,-9.809,-2.247,-1.345,0.009,2.711, /
&OBST ID='Columns_18', SURF_ID='Gypsum wall',
      XB=14.789,15.211,1.353,2.255,4.389,7.091, /
&OBST ID='Columns_19', SURF_ID='Gypsum wall',
      XB=24.869,25.171,13.353,13.715,4.389,7.511, /
! ... 156 like lines cut
! External BC, from 5 faces, in 0.000 s
&VENT ID='External BC_0', SURF_ID='OPEN', PBX=-31.500, /
&VENT ID='External BC_1', SURF_ID='OPEN', PBX=31.500, /
&VENT ID='External BC_2', SURF_ID='OPEN', PBY=-14.817, /
&VENT ID='External BC_3', SURF_ID='OPEN', PBY=16.183, /
&VENT ID='External BC_4', SURF_ID='OPEN', PBZ=12.968, /
! Fire doors, from voxelization (8 voxels, voxel size is 0.100), in 0.059 s
&OBST ID='Fire doors_0', FYI='always closed', SURF_ID='Gypsum wall',
      XB=-1.051,-0.049,4.423,4.525,-0.041,2.161, /
&OBST ID='Fire doors_1', FYI='always closed', SURF_ID='Gypsum wall',
      XB=0.049,0.951,4.423,4.525,-0.041,2.161, /
&OBST ID='Fire doors_2', FYI='always closed', SURF_ID='Gypsum wall',
      XB=0.049,0.951,7.823,7.925,4.459,6.661, /
&OBST ID='Fire doors_3', FYI='always closed', SURF_ID='Gypsum wall',
      XB=-1.051,-0.049,4.423,4.525,4.459,6.661, /
&OBST ID='Fire doors_4', FYI='always closed', SURF_ID='Gypsum wall',
      XB=0.049,0.951,7.823,7.925,-0.041,2.161, /
&OBST ID='Fire doors_5', FYI='always closed', SURF_ID='Gypsum wall',
      XB=0.049,0.951,4.423,4.525,4.459,6.661, /
&OBST ID='Fire doors_6', FYI='always closed', SURF_ID='Gypsum wall',
      XB=-1.051,-0.049,7.823,7.925,4.459,6.661, /
&OBST ID='Fire doors_7', FYI='always closed', SURF_ID='Gypsum wall',
      XB=-1.051,-0.049,7.823,7.925,-0.041,2.161, /
! Floors, from voxelization (270 voxels, voxel size is 0.100), in 14.560 s
&OBST ID='Floors_0', SURF_ID='Gypsum wall',
      XB=-18.351,-16.649,-2.859,-2.757,7.149,8.451, /
&OBST ID='Floors_1', SURF_ID='Gypsum wall',
      XB=-30.251,-18.649,2.441,2.543,7.549,8.451, /
&OBST ID='Floors_2', SURF_ID='Gypsum wall',
      XB=16.649,18.351,-2.859,-2.757,7.149,8.451, /
&OBST ID='Floors_3', SURF_ID='Gypsum wall',
      XB=1.349,20.151,1.841,1.943,2.649,4.451, /
&OBST ID='Floors_4', SURF_ID='Gypsum wall',
      XB=-30.251,30.251,-13.759,-4.457,7.549,8.451, /
&OBST ID='Floors_5', SURF_ID='Gypsum wall',
      XB=1.949,2.051,11.941,13.343,3.049,4.351, /
&OBST ID='Floors_6', SURF_ID='Gypsum wall',
      XB=-17.251,-3.549,3.341,3.443,7.549,8.451, /
&OBST ID='Floors_7', SURF_ID='Gypsum wall',
      XB=-21.851,-1.749,-1.559,-1.457,2.649,4.451, /
&OBST ID='Floors_8', SURF_ID='Gypsum wall',
      XB=-30.251,-18.149,-3.059,-2.957,7.549,8.451, /
&OBST ID='Floors_9', SURF_ID='Gypsum wall',
      XB=18.449,30.251,2.641,2.743,7.549,8.451, /
&OBST ID='Floors_10', SURF_ID='Gypsum wall',
      XB=1.949,30.251,13.341,13.743,3.049,4.451, /
&OBST ID='Floors_11', SURF_ID='Gypsum wall',
      XB=18.749,30.251,2.341,2.443,7.549,8.451, /
&OBST ID='Floors_12', SURF_ID='Gypsum wall',
      XB=17.149,17.851,3.241,3.343,7.149,8.451, /
&OBST ID='Floors_13', SURF_ID='Gypsum wall',
      XB=2.049,2.151,13.841,14.043,3.049,4.451, /
&OBST ID='Floors_14', SURF_ID='Gypsum wall',
      XB=-2.051,-1.949,11.941,13.343,3.049,4.351, /
&OBST ID='Floors_15', SURF_ID='Gypsum wall',
      XB=-30.251,-17.749,3.341,3.443,7.549,8.451, /
&OBST ID='Floors_16', SURF_ID='Gypsum wall',
      XB=18.649,30.251,-2.559,-2.457,7.549,8.451, /
&OBST ID='Floors_17', SURF_ID='Gypsum wall',
      XB=-17.651,-17.349,3.441,3.543,7.149,8.451, /
&OBST ID='Floors_18', SURF_ID='Gypsum wall',
      XB=-30.251,-2.049,13.741,13.843,3.049,4.451, /
&OBST ID='Floors_19', SURF_ID='Gypsum wall',
      XB=2.049,20.151,1.141,1.243,2.649,4.451, /
! ... 500 like lines cut
! Ground, from 1 faces, in 0.000 s
&VENT ID='Ground', SURF_ID='INERT', PBZ=0.000, /
! Internal stairs, from voxelization (132 voxels, voxel size is 0.100), in 0.277 s
&OBST ID='Internal stairs_0', SURF_ID='Gypsum wall',
      XB=0.149,1.951,12.431,12.533,1.499,1.701, /
&OBST ID='Internal stairs_1', SURF_ID='Gypsum wall',
      XB=0.149,1.951,12.231,12.433,1.399,1.701, /
&OBST ID='Internal stairs_2', SURF_ID='Gypsum wall',
      XB=-1.051,-0.549,8.931,9.033,4.299,4.401, /
&OBST ID='Internal stairs_3', SURF_ID='Gypsum wall',
      XB=-1.951,-0.149,11.031,11.133,3.399,3.601, /
&OBST ID='Internal stairs_4', SURF_ID='Gypsum wall',
      XB=0.149,1.951,13.131,13.233,1.899,2.201, /
&OBST ID='Internal stairs_5', SURF_ID='Gypsum wall',
      XB=-1.051,0.551,9.431,9.533,4.299,4.401, /
&OBST ID='Internal stairs_6', SURF_ID='Gypsum wall',
      XB=0.149,1.951,11.331,11.433,5.099,5.301, /
&OBST ID='Internal stairs_7', SURF_ID='Gypsum wall',
      XB=0.149,1.951,9.631,9.933,4.199,4.401, /
&OBST ID='Internal stairs_8', SURF_ID='Gypsum wall',
      XB=-1.951,-0.149,10.431,10.633,3.699,3.901, /
&OBST ID='Internal stairs_9', SURF_ID='Gypsum wall',
      XB=0.149,1.951,11.731,11.933,1.099,1.401, /
&OBST ID='Internal stairs_10', SURF_ID='Gypsum wall',
      XB=0.149,1.951,10.831,10.933,0.499,0.801, /
&OBST ID='Internal stairs_11', SURF_ID='Gypsum wall',
      XB=0.149,1.951,11.831,11.933,5.399,5.601, /
&OBST ID='Internal stairs_12', SURF_ID='Gypsum wall',
      XB=-1.951,-0.149,11.831,11.933,6.799,7.101, /
&OBST ID='Internal stairs_13', SURF_ID='Gypsum wall',
      XB=-1.951,-1.049,8.731,9.633,4.199,4.401, /
&OBST ID='Internal stairs_14', SURF_ID='Gypsum wall',
      XB=-1.951,-0.149,12.231,12.333,6.599,6.801, /
&OBST ID='Internal stairs_15', SURF_ID='Gypsum wall',
      XB=-1.951,-0.149,9.631,9.833,8.099,8.301, /
&OBST ID='Internal stairs_16', SURF_ID='Gypsum wall',
      XB=0.149,1.951,11.731,11.833,5.299,5.601, /
&OBST ID='Internal stairs_17', SURF_ID='Gypsum wall',
      XB=-2.051,2.051,13.831,15.233,6.299,6.501, /
&OBST ID='Internal stairs_18', SURF_ID='Gypsum wall',
      XB=0.549,1.951,9.431,9.533,4.199,4.401, /
&OBST ID='Internal stairs_19', SURF_ID='Gypsum wall',
      XB=0.749,1.951,9.531,9.633,4.199,4.401, /
! ... 224 like lines cut
! Panels transparent, from voxelization (8 voxels, voxel size is 0.100), in 0.103 s
&OBST ID='Panels transparent_0', SURF_ID='Glass pane',
      XB=-1.551,-0.949,1.449,1.551,9.579,12.181, /
&OBST ID='Panels transparent_1', SURF_ID='Glass pane',
      XB=-0.951,0.951,1.449,1.551,9.579,12.281, /
&OBST ID='Panels transparent_2', SURF_ID='Glass pane',
      XB=-0.951,0.951,-1.551,-1.449,9.579,12.281, /
&OBST ID='Panels transparent_3', SURF_ID='Glass pane',
      XB=-1.551,-0.949,-1.551,-1.449,9.579,12.181, /
&OBST ID='Panels transparent_4', SURF_ID='Glass pane',
      XB=0.949,1.551,1.449,1.551,9.579,12.181, /
&OBST ID='Panels transparent_5', SURF_ID='Glass pane',
      XB=0.949,1.551,-1.551,-1.449,9.579,12.181, /
&OBST ID='Panels transparent_6', SURF_ID='Glass pane',
      XB=1.449,1.551,-1.451,1.451,9.579,12.181, /
&OBST ID='Panels transparent_7', SURF_ID='Glass pane',
      XB=-1.551,-1.449,-1.451,1.451,9.579,12.181, /
! Roof, from voxelization (434 voxels, voxel size is 0.050), in 3.964 s
&OBST ID='Roof_0', SURF_ID='Gypsum wall', SAWTOOTH=.FALSE., THICKEN=.TRUE.,
      XB=3.774,3.876,13.653,13.805,11.724,11.826, /
&OBST ID='Roof_1', SURF_ID='Gypsum wall', SAWTOOTH=.FALSE., THICKEN=.TRUE.,
      XB=-2.426,-2.074,13.303,13.355,12.074,12.176, /
&OBST ID='Roof_2', SURF_ID='Gypsum wall', SAWTOOTH=.FALSE., THICKEN=.TRUE.,
      XB=-1.026,-0.224,-3.547,-3.295,12.224,12.326, /
&OBST ID='Roof_3', SURF_ID='Gypsum wall', SAWTOOTH=.FALSE., THICKEN=.TRUE.,
      XB=3.674,3.926,13.003,13.155,11.724,11.826, /
&OBST ID='Roof_4', SURF_ID='Gypsum wall', SAWTOOTH=.FALSE., THICKEN=.TRUE.,
      XB=-0.826,-0.224,-2.647,-2.445,12.224,12.326, /
&OBST ID='Roof_5', SURF_ID='Gypsum wall', SAWTOOTH=.FALSE., THICKEN=.TRUE.,
      XB=0.824,1.326,-2.647,-2.445,12.174,12.276, /
&OBST ID='Roof_6', SURF_ID='Gypsum wall', SAWTOOTH=.FALSE., THICKEN=.TRUE.,
      XB=-2.376,-2.074,13.203,13.305,12.074,12.176, /
&OBST ID='Roof_7', SURF_ID='Gypsum wall', SAWTOOTH=.FALSE., THICKEN=.TRUE.,
      XB=5.074,5.226,-4.647,13.805,11.274,11.376, /
&OBST ID='Roof_8', SURF_ID='Gypsum wall', SAWTOOTH=.FALSE., THICKEN=.TRUE.,
      XB=-3.526,-3.474,13.553,13.655,11.774,11.926, /
&OBST ID='Roof_9', SURF_ID='Gypsum wall', SAWTOOTH=.FALSE., THICKEN=.TRUE.,
      XB=-2.376,-1.874,-2.897,-2.695,12.074,12.176, /
&OBST ID='Roof_10', SURF_ID='Gypsum wall', SAWTOOTH=.FALSE., THICKEN=.TRUE.,
      XB=-2.026,-1.624,-3.997,-3.745,12.124,12.226, /
&OBST ID='Roof_11', SURF_ID='Gypsum wall', SAWTOOTH=.FALSE., THICKEN=.TRUE.,
      XB=-4.026,-3.924,13.603,13.805,11.674,11.776, /
&OBST ID='Roof_12', SURF_ID='Gypsum wall', SAWTOOTH=.FALSE., THICKEN=.TRUE.,
      XB=-2.176,-1.674,-2.047,-1.995,12.074,12.176, /
&OBST ID='Roof_13', SURF_ID='Gypsum wall', SAWTOOTH=.FALSE., THICKEN=.TRUE.,
      XB=1.074,1.576,-3.747,-3.545,12.174,12.276, /
&OBST ID='Roof_14', SURF_ID='Gypsum wall', SAWTOOTH=.FALSE., THICKEN=.TRUE.,
      XB=2.574,2.826,13.603,13.805,11.974,12.076, /
&OBST ID='Roof_15', SURF_ID='Gypsum wall', SAWTOOTH=.FALSE., THICKEN=.TRUE.,
      XB=-3.926,-3.874,13.653,13.805,11.674,11.826, /
&OBST ID='Roof_16', SURF_ID='Gypsum wall', SAWTOOTH=.FALSE., THICKEN=.TRUE.,
      XB=1.524,1.976,-3.347,-3.295,12.124,12.226, /
&OBST ID='Roof_17', SURF_ID='Gypsum wall', SAWTOOTH=.FALSE., THICKEN=.TRUE.,
      XB=-3.476,-3.274,13.403,13.655,11.824,11.926, /
&OBST ID='Roof_18', SURF_ID='Gypsum wall', SAWTOOTH=.FALSE., THICKEN=.TRUE.,
      XB=-1.176,-0.224,-4.197,-3.995,12.224,12.326, /
&OBST ID='Roof_19', SURF_ID='Gypsum wall', SAWTOOTH=.FALSE., THICKEN=.TRUE.,
      XB=-1.526,-1.024,-3.547,-3.345,12.174,12.276, /
! ... 828 like lines cut
! Roof transparent, from voxelization (42 voxels, voxel size is 0.050), in 0.184 s
&OBST ID='Roof transparent_0', SURF_ID='Glass pane', SAWTOOTH=.FALSE.,
      DEVC_ID='Roof break', XB=1.024,1.076,-1.476,-1.124,12.191,12.343, /
&OBST ID='Roof transparent_1', SURF_ID='Glass pane', SAWTOOTH=.FALSE.,
      DEVC_ID='Roof break', XB=-1.576,-1.024,-0.926,0.926,12.191,12.293, /
&OBST ID='Roof transparent_2', SURF_ID='Glass pane', SAWTOOTH=.FALSE.,
      DEVC_ID='Roof break', XB=-1.576,-1.074,-1.226,-0.924,12.191,12.293, /
&OBST ID='Roof transparent_3', SURF_ID='Glass pane', SAWTOOTH=.FALSE.,
      DEVC_ID='Roof break', XB=-1.326,-1.074,1.374,1.426,12.191,12.293, /
&OBST ID='Roof transparent_4', SURF_ID='Glass pane', SAWTOOTH=.FALSE.,
      DEVC_ID='Roof break', XB=-1.526,-1.274,1.424,1.476,12.191,12.243, /
&OBST ID='Roof transparent_5', SURF_ID='Glass pane', SAWTOOTH=.FALSE.,
      DEVC_ID='Roof break', XB=-1.526,-1.324,1.374,1.426,12.191,12.243, /
&OBST ID='Roof transparent_6', SURF_ID='Glass pane', SAWTOOTH=.FALSE.,
      DEVC_ID='Roof break', XB=1.024,1.526,-1.126,0.926,12.191,12.293, /
&OBST ID='Roof transparent_7', SURF_ID='Glass pane', SAWTOOTH=.FALSE.,
      DEVC_ID='Roof break', XB=-1.526,-1.224,1.474,1.526,12.191,12.243, /
&OBST ID='Roof transparent_8', SURF_ID='Glass pane', SAWTOOTH=.FALSE.,
      DEVC_ID='Roof break', XB=-1.276,-1.074,-1.476,-1.424,12.191,12.293, /
&OBST ID='Roof transparent_9', SURF_ID='Glass pane', SAWTOOTH=.FALSE.,
      DEVC_ID='Roof break', XB=-1.526,-1.424,1.274,1.326,12.191,12.243, /
&OBST ID='Roof transparent_10', SURF_ID='Glass pane', SAWTOOTH=.FALSE.,
      DEVC_ID='Roof break', XB=-1.076,-1.024,0.924,1.176,12.191,12.343, /
&OBST ID='Roof transparent_11', SURF_ID='Glass pane', SAWTOOTH=.FALSE.,
      DEVC_ID='Roof break', XB=-1.226,-1.074,1.474,1.526,12.191,12.293, /
&OBST ID='Roof transparent_12', SURF_ID='Glass pane', SAWTOOTH=.FALSE.,
      DEVC_ID='Roof break', XB=1.074,1.526,-1.576,-1.124,12.191,12.293, /
&OBST ID='Roof transparent_13', SURF_ID='Glass pane', SAWTOOTH=.FALSE.,
      DEVC_ID='Roof break', XB=1.074,1.526,0.924,1.526,12.191,12.293, /
&OBST ID='Roof transparent_14', SURF_ID='Glass pane', SAWTOOTH=.FALSE.,
      DEVC_ID='Roof break', XB=-1.576,-1.524,-1.576,-1.224,12.191,12.293, /
&OBST ID='Roof transparent_15', SURF_ID='Glass pane', SAWTOOTH=.FALSE.,
      DEVC_ID='Roof break', XB=-1.426,-1.074,-1.326,-1.274,12.191,12.293, /
&OBST ID='Roof transparent_16', SURF_ID='Glass pane', SAWTOOTH=.FALSE.,
      DEVC_ID='Roof break', XB=-1.076,1.076,1.474,1.526,12.241,12.343, /
&OBST ID='Roof transparent_17', SURF_ID='Glass pane', SAWTOOTH=.FALSE.,
      DEVC_ID='Roof break', XB=-1.476,-1.074,-1.276,-1.224,12.191,12.293, /
&OBST ID='Roof transparent_18', SURF_ID='Glass pane', SAWTOOTH=.FALSE.,
      DEVC_ID='Roof break', XB=-1.176,-1.074,-1.576,-1.524,12.191,12.293, /
&OBST ID='Roof transparent_19', SURF_ID='Glass pane', SAWTOOTH=.FALSE.,
      DEVC_ID='Roof break', XB=-1.526,-1.224,-1.526,-1.474,12.191,12.243, /
! ... 44 like lines cut
! Walls, from voxelization (705 voxels, voxel size is 0.100), in 7.950 s
&OBST ID='Walls_0', SURF_ID='Gypsum wall',
      XB=4.349,4.651,13.741,13.843,8.479,11.481, /
&OBST ID='Walls_1', SURF_ID='Gypsum wall',
      XB=-2.151,-2.049,13.841,15.243,8.479,12.081, /
&OBST ID='Walls_2', SURF_ID='Gypsum wall',
      XB=-3.151,-2.349,9.341,9.443,6.579,7.481, /
&OBST ID='Walls_3', SURF_ID='Gypsum wall',
      XB=4.449,5.451,-13.759,-13.657,-0.021,3.081, /
&OBST ID='Walls_4', SURF_ID='Gypsum wall',
      XB=2.949,3.351,-4.659,-4.557,8.479,11.881, /
&OBST ID='Walls_5', SURF_ID='Gypsum wall',
      XB=18.049,18.251,3.041,3.143,6.579,7.481, /
&OBST ID='Walls_6', SURF_ID='Gypsum wall',
      XB=20.149,20.251,-13.659,-9.657,-0.021,3.081, /
&OBST ID='Walls_7', SURF_ID='Gypsum wall',
      XB=17.549,17.751,3.541,3.643,4.379,7.481, /
&OBST ID='Walls_8', SURF_ID='Gypsum wall',
      XB=-1.551,-1.449,-1.459,1.443,8.479,9.581, /
&OBST ID='Walls_9', SURF_ID='Gypsum wall',
      XB=24.449,25.451,-13.759,-13.657,-0.021,3.081, /
&OBST ID='Walls_10', SURF_ID='Gypsum wall',
      XB=-21.951,-21.849,-1.059,-0.157,2.179,3.081, /
&OBST ID='Walls_11', SURF_ID='Gypsum wall',
      XB=22.549,22.751,-9.659,-9.557,-0.021,3.081, /
&OBST ID='Walls_12', SURF_ID='Gypsum wall',
      XB=3.549,3.751,-2.359,-2.257,-0.021,3.081, /
&OBST ID='Walls_13', SURF_ID='Gypsum wall',
      XB=2.049,2.451,13.741,13.843,4.379,7.481, /
&OBST ID='Walls_14', SURF_ID='Gypsum wall',
      XB=16.749,16.951,3.041,3.143,6.579,7.481, /
&OBST ID='Walls_15', SURF_ID='Gypsum wall',
      XB=4.849,4.951,12.741,13.743,4.379,7.481, /
&OBST ID='Walls_16', SURF_ID='Gypsum wall',
      XB=22.649,22.751,-5.859,-5.757,-0.021,3.081, /
&OBST ID='Walls_17', SURF_ID='Gypsum wall',
      XB=-1.251,-1.149,-2.159,-2.057,4.379,5.481, /
&OBST ID='Walls_18', SURF_ID='Gypsum wall',
      XB=-17.151,-16.949,-3.359,-3.257,6.579,7.481, /
&OBST ID='Walls_19', SURF_ID='Gypsum wall',
      XB=-16.951,-16.749,-3.159,-3.057,6.579,7.481, /
! ... 1370 like lines cut
! Walls stairs, from voxelization (37 voxels, voxel size is 0.100), in 0.062 s
&OBST ID='Walls stairs_0', SURF_ID='Gypsum wall',
      XB=-0.151,0.151,12.308,12.410,5.624,6.526, /
&OBST ID='Walls stairs_1', SURF_ID='Gypsum wall',
      XB=-0.151,0.151,9.608,9.710,4.224,8.126, /
&OBST ID='Walls stairs_2', SURF_ID='Gypsum wall',
      XB=-0.151,0.251,9.308,9.410,4.424,8.526, /
&OBST ID='Walls stairs_3', SURF_ID='Gypsum wall',
      XB=-0.151,0.151,11.608,11.710,5.224,6.926, /
&OBST ID='Walls stairs_4', SURF_ID='Gypsum wall',
      XB=-0.151,0.151,11.008,11.110,4.924,7.326, /
&OBST ID='Walls stairs_5', SURF_ID='Gypsum wall',
      XB=-0.151,0.151,13.208,13.410,6.224,6.326, /
&OBST ID='Walls stairs_6', SURF_ID='Gypsum wall',
      XB=1.449,1.951,9.308,9.410,4.424,8.526, /
&OBST ID='Walls stairs_7', SURF_ID='Gypsum wall',
      XB=-0.151,0.151,11.308,11.510,5.124,7.126, /
&OBST ID='Walls stairs_8', SURF_ID='Gypsum wall',
      XB=-0.151,0.151,10.608,10.710,4.624,7.526, /
&OBST ID='Walls stairs_9', SURF_ID='Gypsum wall',
      XB=-0.151,0.151,12.208,12.310,5.624,6.626, /
&OBST ID='Walls stairs_10', SURF_ID='Gypsum wall',
      XB=-0.151,0.151,10.808,10.910,4.824,7.426, /
&OBST ID='Walls stairs_11', SURF_ID='Gypsum wall',
      XB=-0.151,0.151,11.808,11.910,5.324,6.826, /
&OBST ID='Walls stairs_12', SURF_ID='Gypsum wall',
      XB=-0.151,0.151,10.408,10.510,4.524,7.626, /
&OBST ID='Walls stairs_13', SURF_ID='Gypsum wall',
      XB=-0.151,0.151,10.108,10.210,4.324,7.826, /
&OBST ID='Walls stairs_14', SURF_ID='Gypsum wall',
      XB=-0.151,0.151,12.408,12.510,5.724,6.526, /
&OBST ID='Walls stairs_15', SURF_ID='Gypsum wall',
      XB=-0.151,0.151,10.308,10.410,4.524,7.726, /
&OBST ID='Walls stairs_16', SURF_ID='Gypsum wall',
      XB=-0.151,0.151,11.108,11.210,4.924,7.226, /
&OBST ID='Walls stairs_17', SURF_ID='Gypsum wall',
      XB=-0.151,0.151,12.108,12.210,5.524,6.626, /
&OBST ID='Walls stairs_18', SURF_ID='Gypsum wall',
      XB=-0.151,0.151,11.708,11.810,5.324,6.926, /
&OBST ID='Walls stairs_19', SURF_ID='Gypsum wall',
      XB=-0.151,0.151,12.508,12.610,5.824,6.426, /
! ... 34 like lines cut
! Window panes, from voxelization (75 voxels, voxel size is 0.100), in 1.506 s
&OBST ID='Window panes_0', SURF_ID='Glass pane',
      XB=22.649,22.751,-5.713,-5.111,1.184,2.086, /
&OBST ID='Window panes_1', SURF_ID='Glass pane',
      XB=25.449,29.451,13.687,13.789,1.084,3.086, /
&OBST ID='Window panes_2', SURF_ID='Glass pane',
      XB=-19.551,-15.549,-13.813,-13.711,1.084,3.086, /
&OBST ID='Window panes_3', SURF_ID='Glass pane',
      XB=10.449,14.451,13.687,13.789,5.484,7.486, /
&OBST ID='Window panes_4', SURF_ID='Glass pane',
      XB=-19.551,-15.549,13.687,13.789,1.084,3.086, /
&OBST ID='Window panes_5', SURF_ID='Glass pane',
      XB=-29.451,-25.449,-13.813,-13.711,5.484,7.486, /
&OBST ID='Window panes_6', SURF_ID='Glass pane',
      XB=-30.251,-30.149,2.987,6.989,5.484,7.486, /
&OBST ID='Window panes_7', SURF_ID='Glass pane',
      XB=25.449,29.451,13.687,13.789,5.484,7.486, /
&OBST ID='Window panes_8', SURF_ID='Glass pane',
      XB=-14.451,-10.449,13.687,13.789,5.484,7.486, /
&OBST ID='Window panes_9', SURF_ID='Glass pane',
      XB=-9.551,-5.549,13.687,13.789,1.084,3.086, /
&OBST ID='Window panes_10', SURF_ID='Glass pane',
      XB=10.449,14.451,-13.813,-13.711,5.484,7.486, /
&OBST ID='Window panes_11', SURF_ID='Glass pane',
      XB=15.449,19.451,13.687,13.789,1.084,3.086, /
&OBST ID='Window panes_12', SURF_ID='Glass pane',
      XB=-30.251,-30.149,-12.013,-8.011,5.484,7.486, /
&OBST ID='Window panes_13', SURF_ID='Glass pane',
      XB=30.149,30.251,7.987,10.789,-0.016,3.086, /
&OBST ID='Window panes_14', SURF_ID='Glass pane',
      XB=-19.451,-15.449,-13.813,-13.711,5.484,7.486, /
&OBST ID='Window panes_15', SURF_ID='Glass pane',
      XB=-9.451,-5.549,-13.813,-13.711,5.484,7.486, /
&OBST ID='Window panes_16', SURF_ID='Glass pane',
      XB=-24.551,-20.549,-13.813,-13.711,1.084,3.086, /
&OBST ID='Window panes_17', SURF_ID='Glass pane',
      XB=30.149,30.251,2.987,6.989,5.484,7.486, /
&OBST ID='Window panes_18', SURF_ID='Glass pane',
      XB=30.149,30.251,2.987,6.989,1.084,3.086, /
&OBST ID='Window panes_19', SURF_ID='Glass pane',
      XB=-24.451,-20.449,13.687,13.789,5.484,7.486, /
! ... 110 like lines cut

!!! Evacuation


!!! Control logic and output

! Roof break, from center point, in 0.000 s
&DEVC ID='Roof break', FYI='Break the roof', SURF_ID='Glass pane',
      QUANTITY='TEMPERATURE',  SETPOINT=150., INITIAL_STATE=.TRUE., XYZ=0.000,0.000,12.027, /
! Slcf temp, from 2 faces, in 0.000 s
&SLCF QUANTITY='TEMPERATURE', VECTOR=.TRUE., PBX=0.000, /
&SLCF QUANTITY='TEMPERATURE', VECTOR=.TRUE., PBY=-0.000, /
! Slcf visibility, from 2 faces, in 0.000 s
&SLCF QUANTITY='VISIBILITY', PBX=0.000, /
&SLCF QUANTITY='VISIBILITY', PBY=-0.000, /
! Smoke detector, from center point, in 0.000 s
&DEVC ID='Smoke detector', PROP_ID='acme smoke detector', XYZ=5.000,0.000,2.500, /

!!! Others


&TAIL /
! Generated in 30.896 s.
