! Generated by BlenderFDS 3.0.0 on Blender 2.69 (sub 0)
! Date: Sun, 22 Dec 2013, 08:36:06
! File: /home/egissi/Documenti/Argomenti/BlenderFDS/svn/trunk/examples/uni-build/uni-build_02.blend

! HEAD: Free text 'Free text' appended
&HEAD CHID='uni-build_s1' TITLE='University building, scenario 1' /
&MATL ID='Gypsum plaster', CONDUCTIVITY=0.48,
      SPECIFIC_HEAT=0.84, DENSITY=1440. /
      Thermo-physical properties of gypsum plaster.

&PROP ID='acme smoke detector', QUANTITY='CHAMBER OBSCURATION',
      LENGTH=1.8, ACTIVATION_OBSCURATION=3.28 /
      
&ISOF QUANTITY='TEMPERATURE', VALUE(1)=60. /
&ISOF QUANTITY='VISIBILITY', VALUE(1)=10. /
&BNDF QUANTITY='ADIABATIC SURFACE TEMPERATURE' /
! End of free text
&TIME T_BEGIN=0.0 T_END=0.0 /
&REAC FUEL='polyurethane' FYI='Polyurethane flexible foam (means), Tewarson SFPE Handbook 3rd ed, table 3-4.14, p. 3-112.' CO_YIELD=0.027750 SOOT_YIELD=0.187500 HEAT_OF_COMBUSTION=25300.0 IDEAL=.TRUE. C=1 H=1.75 O=0.25 N=0.065 /
&DUMP RENDER_FILE='uni-build_s1.GE1' /
! SURF: TAU_Q: HRR(t) has a t² ramp
&SURF ID='Burner' FYI='Est.d area 5.00 m², HRR max 1500 kW, fast t² ramp (US)' RGB=204,0,2 HRRPUA=300.000 TAU_Q=-178.9 /
&SURF ID='Glass pane' RGB=0,204,201 TRANSPARENCY=0.20 /
&SURF ID='Gypsum wall' RGB=184,186,136 /
! Building: group of namelists
! OBST: XB: 98 voxels, resolution 0.100 m, in 3 s (s:1 1f:0, 2g:0, 3g:0)
&OBST ID='Columns_0' XB=-15.147,-14.847,13.352,13.752,0.011,3.110 SURF_ID='Gypsum wall' /
&OBST ID='Columns_1' XB=-15.147,-14.847,13.352,13.752,4.410,7.509 SURF_ID='Gypsum wall' /
&OBST ID='Columns_2' XB=4.749,5.249,1.354,2.254,0.011,2.710 SURF_ID='Gypsum wall' /
&OBST ID='Columns_3' XB=4.749,5.249,1.354,2.254,4.410,7.109 SURF_ID='Gypsum wall' /
&OBST ID='Columns_4' XB=9.748,10.248,1.354,2.254,0.011,2.710 SURF_ID='Gypsum wall' /
&OBST ID='Columns_5' XB=9.748,10.248,1.354,2.254,4.410,7.109 SURF_ID='Gypsum wall' /
&OBST ID='Columns_6' XB=-20.247,-19.747,1.354,2.254,0.011,2.710 SURF_ID='Gypsum wall' /
&OBST ID='Columns_7' XB=-20.247,-19.747,1.354,2.254,4.410,7.109 SURF_ID='Gypsum wall' /
&OBST ID='Columns_8' XB=-25.246,-24.746,-2.245,-1.346,4.410,7.109 SURF_ID='Gypsum wall' /
&OBST ID='Columns_9' XB=-20.047,-19.747,-13.743,-13.343,0.011,3.110 SURF_ID='Gypsum wall' /
&OBST ID='Columns_10' XB=-20.047,-19.747,-13.743,-13.343,4.410,7.509 SURF_ID='Gypsum wall' /
&OBST ID='Columns_11' XB=-15.247,-14.747,1.354,2.254,0.011,2.710 SURF_ID='Gypsum wall' /
&OBST ID='Columns_12' XB=-15.247,-14.747,1.354,2.254,4.410,7.109 SURF_ID='Gypsum wall' /
&OBST ID='Columns_13' XB=-25.146,-24.846,-13.743,-13.343,0.011,3.110 SURF_ID='Gypsum wall' /
&OBST ID='Columns_14' XB=-25.146,-24.846,-13.743,-13.343,4.410,7.509 SURF_ID='Gypsum wall' /
&OBST ID='Columns_15' XB=4.749,5.249,-2.245,-1.346,0.011,2.710 SURF_ID='Gypsum wall' /
&OBST ID='Columns_16' XB=4.749,5.249,-2.245,-1.346,4.410,7.109 SURF_ID='Gypsum wall' /
&OBST ID='Columns_17' XB=-5.249,-4.949,13.352,13.752,0.011,3.110 SURF_ID='Gypsum wall' /
&OBST ID='Columns_18' XB=-5.249,-4.949,13.352,13.752,4.410,7.509 SURF_ID='Gypsum wall' /
&OBST ID='Columns_19' XB=9.748,10.248,-2.245,-1.346,0.011,2.710 SURF_ID='Gypsum wall' /
! ... 78 like lines cut
! OBST: XB: 93 voxels, resolution 0.100 m, in 0 s (s:0 1f:0, 2g:0, 3g:0)
&OBST ID='External stairs_0' XB=-34.963,-32.265,6.537,6.636,2.060,2.160 SURF_ID='Gypsum wall' /
&OBST ID='External stairs_1' XB=-35.563,-33.764,2.940,3.239,0.961,1.061 SURF_ID='Gypsum wall' /
&OBST ID='External stairs_2' XB=-33.364,-30.267,0.042,1.041,4.358,4.458 SURF_ID='Gypsum wall' /
&OBST ID='External stairs_3' XB=30.281,33.978,0.042,0.142,4.358,4.458 SURF_ID='Gypsum wall' /
&OBST ID='External stairs_4' XB=-32.665,-30.267,-0.657,-0.557,4.358,4.458 SURF_ID='Gypsum wall' /
&OBST ID='External stairs_5' XB=30.281,33.278,-0.657,-0.557,4.358,4.458 SURF_ID='Gypsum wall' /
&OBST ID='External stairs_6' XB=32.279,34.078,8.035,8.335,0.961,1.061 SURF_ID='Gypsum wall' /
&OBST ID='External stairs_7' XB=-33.364,-31.566,1.841,2.140,3.859,3.958 SURF_ID='Gypsum wall' /
&OBST ID='External stairs_8' XB=32.279,34.078,1.841,2.140,3.859,3.958 SURF_ID='Gypsum wall' /
&OBST ID='External stairs_9' XB=-33.364,-31.566,2.140,2.440,3.659,3.759 SURF_ID='Gypsum wall' /
&OBST ID='External stairs_10' XB=32.279,34.078,2.140,2.440,3.659,3.759 SURF_ID='Gypsum wall' /
&OBST ID='External stairs_11' XB=-35.563,-31.566,5.238,5.937,2.060,2.160 SURF_ID='Gypsum wall' /
&OBST ID='External stairs_12' XB=-35.563,-33.764,4.039,4.338,1.561,1.660 SURF_ID='Gypsum wall' /
&OBST ID='External stairs_13' XB=-33.364,-31.566,4.338,4.638,2.360,2.460 SURF_ID='Gypsum wall' /
&OBST ID='External stairs_14' XB=32.279,34.078,4.338,4.638,2.360,2.460 SURF_ID='Gypsum wall' /
&OBST ID='External stairs_15' XB=32.279,34.078,4.638,5.937,2.260,2.360 SURF_ID='Gypsum wall' /
&OBST ID='External stairs_16' XB=-35.563,-33.764,1.841,2.140,0.362,0.462 SURF_ID='Gypsum wall' /
&OBST ID='External stairs_17' XB=32.279,34.078,8.635,8.934,0.661,0.761 SURF_ID='Gypsum wall' /
&OBST ID='External stairs_18' XB=32.279,34.078,9.834,10.133,-0.038,0.062 SURF_ID='Gypsum wall' /
&OBST ID='External stairs_19' XB=30.281,34.078,0.142,0.941,4.358,4.458 SURF_ID='Gypsum wall' /
! ... 73 like lines cut
! OBST: XB: 99 voxels, resolution 0.100 m, in 1 s (s:0 1f:0, 2g:0, 3g:0)
&OBST ID='Internal stairs_0' XB=-1.945,-0.150,10.834,11.332,3.502,3.602 SURF_ID='Gypsum wall' /
&OBST ID='Internal stairs_1' XB=-1.945,-0.150,12.330,12.829,6.495,6.594 SURF_ID='Gypsum wall' /
&OBST ID='Internal stairs_2' XB=-1.945,-0.150,11.033,11.332,7.293,7.392 SURF_ID='Gypsum wall' /
&OBST ID='Internal stairs_3' XB=-1.945,-0.150,9.736,10.235,4.100,4.200 SURF_ID='Gypsum wall' /
&OBST ID='Internal stairs_4' XB=0.150,1.945,12.230,12.729,1.606,1.706 SURF_ID='Gypsum wall' /
&OBST ID='Internal stairs_5' XB=-2.045,2.045,13.826,15.323,6.295,6.495 SURF_ID='Gypsum wall' /
&OBST ID='Internal stairs_6' XB=-1.945,-0.150,11.133,11.632,3.302,3.402 SURF_ID='Gypsum wall' /
&OBST ID='Internal stairs_7' XB=0.150,1.945,12.230,12.829,5.896,5.996 SURF_ID='Gypsum wall' /
&OBST ID='Internal stairs_8' XB=-1.945,-0.150,12.130,12.529,2.704,2.804 SURF_ID='Gypsum wall' /
&OBST ID='Internal stairs_9' XB=-1.945,-0.150,12.629,13.128,2.405,2.504 SURF_ID='Gypsum wall' /
&OBST ID='Internal stairs_10' XB=-2.045,2.045,13.826,15.323,2.005,2.205 SURF_ID='Gypsum wall' /
&OBST ID='Internal stairs_11' XB=0.150,1.945,11.133,11.632,5.198,5.297 SURF_ID='Gypsum wall' /
&OBST ID='Internal stairs_12' XB=0.150,1.945,11.133,11.632,0.908,1.008 SURF_ID='Gypsum wall' /
&OBST ID='Internal stairs_13' XB=0.150,1.945,11.731,12.130,1.207,1.307 SURF_ID='Gypsum wall' /
&OBST ID='Internal stairs_14' XB=0.150,1.945,10.235,10.734,0.409,0.509 SURF_ID='Gypsum wall' /
&OBST ID='Internal stairs_15' XB=0.150,1.945,9.636,9.936,4.200,4.300 SURF_ID='Gypsum wall' /
&OBST ID='Internal stairs_16' XB=0.150,1.945,12.529,13.128,1.806,1.906 SURF_ID='Gypsum wall' /
&OBST ID='Internal stairs_17' XB=-1.945,-0.150,9.337,9.636,8.290,8.490 SURF_ID='Gypsum wall' /
&OBST ID='Internal stairs_18' XB=-1.945,1.945,7.841,9.636,4.300,4.400 SURF_ID='Gypsum wall' /
&OBST ID='Internal stairs_19' XB=0.150,1.945,11.931,12.529,5.696,5.796 SURF_ID='Gypsum wall' /
! ... 79 like lines cut
! OBST: XB: 8 voxels, resolution 0.100 m, in 0 s (s:0 1f:0, 2g:0, 3g:0)
&OBST ID='Panels transparent_0' XB=-1.133,1.133,1.429,1.527,9.600,12.260 SURF_ID='Glass pane' /
&OBST ID='Panels transparent_1' XB=-1.527,-1.133,1.429,1.527,9.600,12.161 SURF_ID='Glass pane' /
&OBST ID='Panels transparent_2' XB=1.133,1.527,-1.527,-1.429,9.600,12.161 SURF_ID='Glass pane' /
&OBST ID='Panels transparent_3' XB=-1.133,1.133,-1.527,-1.429,9.600,12.260 SURF_ID='Glass pane' /
&OBST ID='Panels transparent_4' XB=-1.527,-1.133,-1.527,-1.429,9.600,12.161 SURF_ID='Glass pane' /
&OBST ID='Panels transparent_5' XB=1.133,1.527,1.429,1.527,9.600,12.161 SURF_ID='Glass pane' /
&OBST ID='Panels transparent_6' XB=-1.527,-1.429,-1.429,1.429,9.600,12.161 SURF_ID='Glass pane' /
&OBST ID='Panels transparent_7' XB=1.429,1.527,-1.429,1.429,9.600,12.161 SURF_ID='Glass pane' /
! OBST: XB: 729 voxels, resolution 0.100 m, in 38 s (s:6 1f:2, 2g:18, 3g:3)
&OBST ID='Walls int ext_0' XB=-28.855,-24.370,1.938,2.038,0.000,3.090 SURF_ID='Gypsum wall' /
&OBST ID='Walls int ext_1' XB=25.466,29.453,13.699,13.799,0.000,1.097 SURF_ID='Gypsum wall' /
&OBST ID='Walls int ext_2' XB=25.466,29.453,13.699,13.799,4.386,5.482 SURF_ID='Gypsum wall' /
&OBST ID='Walls int ext_3' XB=-24.470,-20.483,-13.810,-13.711,0.000,1.097 SURF_ID='Gypsum wall' /
&OBST ID='Walls int ext_4' XB=-24.470,-20.483,-13.810,-13.711,4.386,5.482 SURF_ID='Gypsum wall' /
&OBST ID='Walls int ext_5' XB=15.499,19.486,13.699,13.799,0.000,1.097 SURF_ID='Gypsum wall' /
&OBST ID='Walls int ext_6' XB=15.499,19.486,13.699,13.799,4.386,5.482 SURF_ID='Gypsum wall' /
&OBST ID='Walls int ext_7' XB=-19.486,-18.290,-2.348,-2.248,2.193,3.090 SURF_ID='Gypsum wall' /
&OBST ID='Walls int ext_8' XB=-28.556,-18.888,-2.348,-2.248,4.386,7.476 SURF_ID='Gypsum wall' /
&OBST ID='Walls int ext_9' XB=15.499,19.486,-13.810,-13.711,0.000,1.097 SURF_ID='Gypsum wall' /
&OBST ID='Walls int ext_10' XB=15.499,19.486,-13.810,-13.711,4.386,5.482 SURF_ID='Gypsum wall' /
&OBST ID='Walls int ext_11' XB=-19.486,-15.499,13.699,13.799,0.000,1.097 SURF_ID='Gypsum wall' /
&OBST ID='Walls int ext_12' XB=-19.486,-15.499,13.699,13.799,4.386,5.482 SURF_ID='Gypsum wall' /
&OBST ID='Walls int ext_13' XB=-18.290,-6.728,-2.348,-2.248,0.000,3.090 SURF_ID='Gypsum wall' /
&OBST ID='Walls int ext_14' XB=-16.097,-6.529,-2.348,-2.248,4.386,7.476 SURF_ID='Gypsum wall' /
&OBST ID='Walls int ext_15' XB=17.393,17.592,3.632,3.732,4.386,7.476 SURF_ID='Gypsum wall' /
&OBST ID='Walls int ext_16' XB=2.542,4.535,-13.810,-13.711,0.000,1.097 SURF_ID='Gypsum wall' /
&OBST ID='Walls int ext_17' XB=0.548,4.535,-13.810,-13.711,4.386,5.482 SURF_ID='Gypsum wall' /
&OBST ID='Walls int ext_18' XB=-18.689,-18.589,-2.647,-2.547,6.579,7.476 SURF_ID='Gypsum wall' /
&OBST ID='Walls int ext_19' XB=18.390,18.489,2.735,2.835,6.579,7.476 SURF_ID='Gypsum wall' /
! ... 709 like lines cut
! OBST: XB: 38 voxels, resolution 0.100 m, in 0 s (s:0 1f:0, 2g:0, 3g:0)
&OBST ID='Walls stairs_0' XB=-0.138,0.159,10.420,10.519,4.547,7.610 SURF_ID='Gypsum wall' /
&OBST ID='Walls stairs_1' XB=-0.138,0.159,10.914,11.013,4.843,7.413 SURF_ID='Gypsum wall' /
&OBST ID='Walls stairs_2' XB=-0.138,0.159,9.630,9.827,4.250,8.105 SURF_ID='Gypsum wall' /
&OBST ID='Walls stairs_3' XB=-0.138,0.159,9.827,9.926,4.250,8.006 SURF_ID='Gypsum wall' /
&OBST ID='Walls stairs_4' XB=-0.138,0.159,13.188,13.385,6.227,6.326 SURF_ID='Gypsum wall' /
&OBST ID='Walls stairs_5' XB=-0.138,0.159,12.199,12.298,5.634,6.622 SURF_ID='Gypsum wall' /
&OBST ID='Walls stairs_6' XB=-0.138,0.159,12.891,13.089,6.029,6.326 SURF_ID='Gypsum wall' /
&OBST ID='Walls stairs_7' XB=-0.138,0.159,12.298,12.397,5.634,6.523 SURF_ID='Gypsum wall' /
&OBST ID='Walls stairs_8' XB=-0.138,0.159,11.409,11.507,5.140,7.116 SURF_ID='Gypsum wall' /
&OBST ID='Walls stairs_9' XB=-0.138,0.159,11.507,11.606,5.238,7.017 SURF_ID='Gypsum wall' /
&OBST ID='Walls stairs_10' XB=-0.138,0.159,12.693,12.891,5.930,6.326 SURF_ID='Gypsum wall' /
&OBST ID='Walls stairs_11' XB=-0.138,0.258,9.333,9.432,4.448,8.500 SURF_ID='Gypsum wall' /
&OBST ID='Walls stairs_12' XB=-0.138,0.159,12.595,12.693,5.831,6.424 SURF_ID='Gypsum wall' /
&OBST ID='Walls stairs_13' XB=-0.138,0.159,9.432,9.630,4.448,8.203 SURF_ID='Gypsum wall' /
&OBST ID='Walls stairs_14' XB=-0.138,0.159,10.519,10.618,4.645,7.610 SURF_ID='Gypsum wall' /
&OBST ID='Walls stairs_15' XB=-0.138,0.159,10.816,10.914,4.744,7.413 SURF_ID='Gypsum wall' /
&OBST ID='Walls stairs_16' XB=-0.138,0.159,11.705,11.804,5.337,6.919 SURF_ID='Gypsum wall' /
&OBST ID='Walls stairs_17' XB=-0.138,0.159,11.804,11.903,5.337,6.820 SURF_ID='Gypsum wall' /
&OBST ID='Walls stairs_18' XB=-0.138,0.159,10.025,10.124,4.349,7.907 SURF_ID='Gypsum wall' /
&OBST ID='Walls stairs_19' XB=-0.138,0.159,11.211,11.310,5.041,7.215 SURF_ID='Gypsum wall' /
! ... 18 like lines cut
! OBST: XB: 75 voxels, resolution 0.100 m, in 4 s (s:1 1f:0, 2g:1, 3g:0)
&OBST ID='Window panes_0' XB=15.488,19.472,13.735,13.835,1.096,3.088 SURF_ID='Glass pane' /
&OBST ID='Window panes_1' XB=15.488,19.472,13.735,13.835,5.478,7.470 SURF_ID='Glass pane' /
&OBST ID='Window panes_2' XB=-24.452,-20.468,-13.754,-13.655,1.096,3.088 SURF_ID='Glass pane' /
&OBST ID='Window panes_3' XB=-24.452,-20.468,-13.754,-13.655,5.478,7.470 SURF_ID='Glass pane' /
&OBST ID='Window panes_4' XB=21.563,22.659,-5.886,-5.786,1.195,2.092 SURF_ID='Glass pane' /
&OBST ID='Window panes_5' XB=15.488,19.472,-13.754,-13.655,1.096,3.088 SURF_ID='Glass pane' /
&OBST ID='Window panes_6' XB=15.488,19.472,-13.754,-13.655,5.478,7.470 SURF_ID='Glass pane' /
&OBST ID='Window panes_7' XB=5.528,9.512,13.735,13.835,1.096,3.088 SURF_ID='Glass pane' /
&OBST ID='Window panes_8' XB=5.528,9.512,13.735,13.835,5.478,7.470 SURF_ID='Glass pane' /
&OBST ID='Window panes_9' XB=10.508,14.492,-13.754,-13.655,1.096,3.088 SURF_ID='Glass pane' /
&OBST ID='Window panes_10' XB=10.508,14.492,-13.754,-13.655,5.478,7.470 SURF_ID='Glass pane' /
&OBST ID='Window panes_11' XB=20.468,24.452,13.735,13.835,1.096,3.088 SURF_ID='Glass pane' /
&OBST ID='Window panes_12' XB=20.468,24.452,13.735,13.835,5.478,7.470 SURF_ID='Glass pane' /
&OBST ID='Window panes_13' XB=-29.531,-25.547,-13.754,-13.655,1.096,3.088 SURF_ID='Glass pane' /
&OBST ID='Window panes_14' XB=-29.531,-25.547,-13.754,-13.655,5.478,7.470 SURF_ID='Glass pane' /
&OBST ID='Window panes_15' XB=25.547,29.531,13.735,13.835,1.096,3.088 SURF_ID='Glass pane' /
&OBST ID='Window panes_16' XB=25.547,29.531,13.735,13.835,5.478,7.470 SURF_ID='Glass pane' /
&OBST ID='Window panes_17' XB=-9.512,-5.528,13.735,13.835,1.096,3.088 SURF_ID='Glass pane' /
&OBST ID='Window panes_18' XB=-9.512,-5.528,13.735,13.835,5.478,7.470 SURF_ID='Glass pane' /
&OBST ID='Window panes_19' XB=-14.492,-10.508,13.735,13.835,1.096,3.088 SURF_ID='Glass pane' /
! ... 55 like lines cut
&OBST ID='Burner' FYI='5 m2 on fire' SURF_ID='Burner' XB=6.500,7.500,-1.500,-0.500,0.000,1.000 /
! Domain: This is the domain of simulation
! MESH: IJK: 72576 mesh cells of size 0.500x0.500x0.500 m
&MESH ID='Domain +1' IJK=42,64,27 XB=10.500,31.500,-15.000,17.000,0.000,13.500 /
! MESH: IJK: 72576 mesh cells of size 0.500x0.500x0.500 m
&MESH ID='Domain -1' IJK=42,64,27 XB=-31.500,-10.500,-15.000,17.000,0.000,13.500 /
! MESH: IJK: 72576 mesh cells of size 0.500x0.500x0.500 m
&MESH ID='Domain 0' IJK=42,64,27 XB=-10.500,10.500,-15.000,17.000,0.000,13.500 /
! VENT: PB*: 3 planes
&VENT ID='Domain bc_0' PBY=-15.000 SURF_ID='OPEN' /
&VENT ID='Domain bc_1' PBY=17.000 SURF_ID='OPEN' /
&VENT ID='Domain bc_2' PBZ=13.500 SURF_ID='OPEN' /
&VENT ID='Ground' SURF_ID='INERT' XB=-40.295,40.295,-23.796,23.804,0.000,0.000 /
! Output: group of namelists
! SLCF: PB*: 2 planes
&SLCF ID='Slcf temp_0' PBX=0.000 QUANTITY='TEMPERATURE' VECTOR=.TRUE. /
&SLCF ID='Slcf temp_1' PBY=-0.000 QUANTITY='TEMPERATURE' VECTOR=.TRUE. /
! SLCF: PB*: 2 planes
&SLCF ID='Slcf visibility_0' PBX=0.000 QUANTITY='VISIBILITY' VECTOR=.FALSE. /
&SLCF ID='Slcf visibility_1' PBY=-0.000 QUANTITY='VISIBILITY' VECTOR=.FALSE. /
&DEVC ID='Smoke detector' INITIAL_STATE=.FALSE. LATCH=.TRUE. PROP_ID='acme smoke detector' XYZ=5.000,0.000,2.500 /
! Roof: group of namelists
! OBST: XB: 186 voxels, resolution 0.100 m, in 36 s (s:10 1f:2, 2g:13, 3g:0)
&OBST ID='Floors_0' XB=-30.324,-1.948,7.836,13.830,4.251,4.351 SURF_ID='Gypsum wall' /
&OBST ID='Floors_1' XB=1.948,30.324,7.836,13.830,4.251,4.351 SURF_ID='Gypsum wall' /
&OBST ID='Floors_2' XB=-30.224,-1.449,-1.356,1.341,7.448,7.548 SURF_ID='Gypsum wall' /
&OBST ID='Floors_3' XB=1.449,30.224,-1.356,1.341,7.448,7.548 SURF_ID='Gypsum wall' /
&OBST ID='Floors_4' XB=-30.324,-1.948,13.331,13.830,4.351,4.451 SURF_ID='Gypsum wall' /
&OBST ID='Floors_5' XB=1.948,30.324,13.331,13.830,4.351,4.451 SURF_ID='Gypsum wall' /
&OBST ID='Floors_6' XB=-30.324,30.324,-13.846,-1.456,7.548,8.547 SURF_ID='Gypsum wall' /
&OBST ID='Floors_7' XB=-30.324,30.324,-13.846,-2.156,3.052,4.451 SURF_ID='Gypsum wall' /
&OBST ID='Floors_8' XB=-30.324,30.324,2.141,7.836,4.251,4.451 SURF_ID='Gypsum wall' /
&OBST ID='Floors_9' XB=-1.349,1.349,-13.746,-4.454,2.653,3.052 SURF_ID='Gypsum wall' /
&OBST ID='Floors_10' XB=-30.324,30.324,2.141,9.634,3.052,4.251 SURF_ID='Gypsum wall' /
&OBST ID='Floors_11' XB=-30.324,-2.048,11.832,13.331,4.351,4.451 SURF_ID='Gypsum wall' /
&OBST ID='Floors_12' XB=2.048,30.324,11.832,13.331,4.351,4.451 SURF_ID='Gypsum wall' /
&OBST ID='Floors_13' XB=-30.324,-1.948,7.836,11.832,4.351,4.451 SURF_ID='Gypsum wall' /
&OBST ID='Floors_14' XB=1.948,30.324,7.836,11.832,4.351,4.451 SURF_ID='Gypsum wall' /
&OBST ID='Floors_15' XB=-29.824,-1.449,-1.456,1.441,7.149,7.448 SURF_ID='Gypsum wall' /
&OBST ID='Floors_16' XB=1.449,29.824,-1.456,1.441,7.149,7.448 SURF_ID='Gypsum wall' /
&OBST ID='Floors_17' XB=-30.324,30.324,1.441,9.334,7.548,8.547 SURF_ID='Gypsum wall' /
&OBST ID='Floors_18' XB=-30.324,-1.948,9.334,13.830,7.548,8.547 SURF_ID='Gypsum wall' /
&OBST ID='Floors_19' XB=1.948,30.324,9.334,13.830,7.548,8.547 SURF_ID='Gypsum wall' /
! ... 166 like lines cut
&DEVC ID='Roof break' FYI='Break the roof' QUANTITY='TEMPERATURE' SETPOINT=150.000 INITIAL_STATE=.TRUE. LATCH=.TRUE. XYZ=0.000,0.000,12.027 /
! OBST: XB: 106 voxels, resolution 0.100 m, in 2 s (s:0 1f:0, 2g:0, 3g:0)
&OBST ID='Roof round_0' XB=-1.247,-1.147,-4.148,-1.554,12.149,12.249 SURF_ID='Gypsum wall' /
&OBST ID='Roof round_1' XB=-1.247,-1.147,1.538,2.536,12.149,12.249 SURF_ID='Gypsum wall' /
&OBST ID='Roof round_2' XB=-4.839,-4.539,-4.647,13.809,11.451,11.551 SURF_ID='Gypsum wall' /
&OBST ID='Roof round_3' XB=-1.945,-1.846,-2.851,-1.854,12.049,12.149 SURF_ID='Gypsum wall' /
&OBST ID='Roof round_4' XB=4.240,4.539,-4.647,13.809,11.551,11.650 SURF_ID='Gypsum wall' /
&OBST ID='Roof round_5' XB=4.839,5.038,-4.647,13.809,11.351,11.451 SURF_ID='Gypsum wall' /
&OBST ID='Roof round_6' XB=-2.544,-2.145,-4.647,13.809,12.049,12.149 SURF_ID='Gypsum wall' /
&OBST ID='Roof round_7' XB=1.048,1.147,-4.647,-3.649,12.249,12.349 SURF_ID='Gypsum wall' /
&OBST ID='Roof round_8' XB=-1.147,1.147,1.538,15.405,12.249,12.349 SURF_ID='Gypsum wall' /
&OBST ID='Roof round_9' XB=-0.648,0.648,-4.647,-1.554,12.249,12.349 SURF_ID='Gypsum wall' /
&OBST ID='Roof round_10' XB=-1.048,-0.948,-4.647,-3.250,12.249,12.349 SURF_ID='Gypsum wall' /
&OBST ID='Roof round_11' XB=3.542,3.941,-4.647,13.809,11.750,11.850 SURF_ID='Gypsum wall' /
&OBST ID='Roof round_12' XB=-0.848,-0.748,-2.353,-1.654,12.149,12.249 SURF_ID='Gypsum wall' /
&OBST ID='Roof round_13' XB=3.043,3.143,-3.350,13.809,11.850,11.950 SURF_ID='Gypsum wall' /
&OBST ID='Roof round_14' XB=-3.043,-2.644,-4.647,13.809,11.950,12.049 SURF_ID='Gypsum wall' /
&OBST ID='Roof round_15' XB=1.546,1.746,-4.647,15.405,12.149,12.249 SURF_ID='Gypsum wall' /
&OBST ID='Roof round_16' XB=0.748,0.848,-2.353,-1.654,12.149,12.249 SURF_ID='Gypsum wall' /
&OBST ID='Roof round_17' XB=-4.539,-4.240,-4.647,13.809,11.551,11.650 SURF_ID='Gypsum wall' /
&OBST ID='Roof round_18' XB=-0.948,-0.848,-2.851,-1.654,12.149,12.249 SURF_ID='Gypsum wall' /
&OBST ID='Roof round_19' XB=3.941,4.240,-4.647,13.809,11.650,11.750 SURF_ID='Gypsum wall' /
! ... 86 like lines cut
&OBST ID='Roof transparent' SURF_ID='Glass pane' XB=-1.550,1.550,-1.550,1.550,12.174,12.360 DEVC_ID='Roof break' /
&TAIL /
! Generated in 84 s.
