
!!! Generated by BlenderFDS 1.2.0 on Blender 2.62 (sub 0)

! Sat, 07 Apr 2012 09:06:00
! Voxel Size: 0.125, 0.124, 0.120

&HEAD CHID='uni-build-s1', TITLE='University building, scenario 1', /

!!! External config file

&TIME T_END=0.0 /

&REAC ID='polyurethane', SOOT_YIELD=0.1875, CO_YIELD=0.02775,
      C=1.0, H=1.75, O=0.25, N=0.065,
      HEAT_OF_COMBUSTION=25300., IDEAL=.TRUE. /
      Gas phase reaction: polyurethane flexible foam (means) from
      Tewarson SFPE Handbook 3rd ed,
      SFPE handbook table 3-4.14, p. 3-112.

&MATL ID='Gypsum plaster', CONDUCTIVITY=0.48,
      SPECIFIC_HEAT=0.84, DENSITY=1440. /
      Thermo-physical properties of gypsum plaster.

&PROP ID='acme smoke detector', QUANTITY='CHAMBER OBSCURATION',
      LENGTH=1.8, ACTIVATION_OBSCURATION=3.28 /
      
&ISOF QUANTITY='TEMPERATURE', VALUE(1)=60. /
&ISOF QUANTITY='VISIBILITY', VALUE(1)=10. /
&BNDF QUANTITY='ADIABATIC SURFACE TEMPERATURE' /

!!! Boundary condition defs

&SURF ID='Burner', FYI='1500 kW on 5 m2, fast fire', RGB=204,0,2, HRRPUA=300.00, TAU_Q=-230.63, /
&SURF ID='Glass pane', RGB=0,204,201, TRANSPARENCY=0.200, /
&SURF ID='Gypsum wall', RGB=184,186,136, MATL_ID='Gypsum plaster', THICKNESS=0.03, /

!!! Computational domain

! 567000 cells, size: 0.250, 0.248, 0.240 m
&MESH ID='Domain +1', IJK=84,125,54, XB=10.500,31.500,-14.817,16.183,0.000,12.968, /
! 567000 cells, size: 0.250, 0.248, 0.240 m
&MESH ID='Domain -1', IJK=84,125,54, XB=-31.500,-10.500,-14.817,16.183,0.000,12.968, /
! 567000 cells, size: 0.250, 0.248, 0.240 m
&MESH ID='Domain 0', IJK=84,125,54, XB=-10.500,10.500,-14.817,16.183,0.000,12.968, /

!!! Geometry

&OBST ID='Burning object', FYI='5 m2 on fire', SURF_ID='Burner',
      XB=6.500,7.500,-1.500,-0.500,0.000,1.000, /
! Columns
&OBST ID='Columns', SURF_ID='Gypsum wall', XB=-30.312,-29.812,-13.702,-13.330,-0.060,3.182, /
&OBST ID='Columns', SURF_ID='Gypsum wall', XB=-30.312,-29.812,-13.702,-13.330,4.383,7.625, /
&OBST ID='Columns', SURF_ID='Gypsum wall', XB=-30.312,-29.812,13.330,13.826,-0.060,3.182, /
&OBST ID='Columns', SURF_ID='Gypsum wall', XB=-30.312,-29.812,13.330,13.826,4.383,7.625, /
&OBST ID='Columns', SURF_ID='Gypsum wall', XB=-30.188,-29.812,-1.674,-1.302,-0.060,3.182, /
&OBST ID='Columns', SURF_ID='Gypsum wall', XB=-30.188,-29.812,1.302,1.674,-0.060,3.182, /
&OBST ID='Columns', SURF_ID='Gypsum wall', XB=-25.312,-24.688,-2.294,-1.302,4.383,7.144, /
&OBST ID='Columns', SURF_ID='Gypsum wall', XB=-25.312,-24.688,1.302,2.294,4.383,7.144, /
&OBST ID='Columns', SURF_ID='Gypsum wall', XB=-25.188,-24.812,-13.702,-13.330,-0.060,3.182, /
&OBST ID='Columns', SURF_ID='Gypsum wall', XB=-25.188,-24.812,-13.702,-13.330,4.383,7.625, /
&OBST ID='Columns', SURF_ID='Gypsum wall', XB=-25.188,-24.812,-1.674,-1.302,-0.060,3.182, /
&OBST ID='Columns', SURF_ID='Gypsum wall', XB=-25.188,-24.812,1.302,1.674,-0.060,3.182, /
&OBST ID='Columns', SURF_ID='Gypsum wall', XB=-25.188,-24.812,13.330,13.826,-0.060,3.182, /
&OBST ID='Columns', SURF_ID='Gypsum wall', XB=-25.188,-24.812,13.330,13.826,4.383,7.625, /
&OBST ID='Columns', SURF_ID='Gypsum wall', XB=-20.312,-19.688,-2.294,-1.302,-0.060,2.702, /
&OBST ID='Columns', SURF_ID='Gypsum wall', XB=-20.312,-19.688,-2.294,-1.302,4.383,7.144, /
&OBST ID='Columns', SURF_ID='Gypsum wall', XB=-20.312,-19.688,1.302,2.294,-0.060,2.702, /
&OBST ID='Columns', SURF_ID='Gypsum wall', XB=-20.312,-19.688,1.302,2.294,4.383,7.144, /
&OBST ID='Columns', SURF_ID='Gypsum wall', XB=-20.188,-19.688,-13.702,-13.206,-0.060,3.182, /
&OBST ID='Columns', SURF_ID='Gypsum wall', XB=-20.188,-19.688,-13.702,-13.206,4.383,7.625, /
! ... 78 like lines cut
! External BC
&VENT ID='External BC', SURF_ID='OPEN', PBZ=12.968, /
&VENT ID='External BC', SURF_ID='OPEN', PBY=-14.817, /
&VENT ID='External BC', SURF_ID='OPEN', PBX=-31.500, /
&VENT ID='External BC', SURF_ID='OPEN', PBY=16.183, /
&VENT ID='External BC', SURF_ID='OPEN', PBX=31.500, /
! External stairs
&OBST ID='External stairs', SURF_ID='Gypsum wall', XB=-35.562,-33.688,1.426,1.922,0.060,0.300, /
&OBST ID='External stairs', SURF_ID='Gypsum wall', XB=-35.562,-33.688,1.798,2.170,0.300,0.420, /
&OBST ID='External stairs', SURF_ID='Gypsum wall', XB=-35.562,-33.688,2.046,2.294,0.420,0.660, /
&OBST ID='External stairs', SURF_ID='Gypsum wall', XB=-35.562,-33.688,2.294,2.418,0.420,0.540, /
&OBST ID='External stairs', SURF_ID='Gypsum wall', XB=-35.562,-33.688,2.294,2.790,0.540,0.780, /
&OBST ID='External stairs', SURF_ID='Gypsum wall', XB=-35.562,-33.688,2.542,3.038,0.780,0.901, /
&OBST ID='External stairs', SURF_ID='Gypsum wall', XB=-35.562,-33.688,2.914,3.162,0.901,1.141, /
&OBST ID='External stairs', SURF_ID='Gypsum wall', XB=-35.562,-33.688,3.162,3.286,0.901,1.021, /
&OBST ID='External stairs', SURF_ID='Gypsum wall', XB=-35.562,-33.688,3.162,3.534,1.021,1.261, /
&OBST ID='External stairs', SURF_ID='Gypsum wall', XB=-35.562,-33.688,3.410,3.906,1.261,1.381, /
&OBST ID='External stairs', SURF_ID='Gypsum wall', XB=-35.562,-33.688,3.782,4.030,1.381,1.621, /
&OBST ID='External stairs', SURF_ID='Gypsum wall', XB=-35.562,-33.688,4.030,4.154,1.381,1.501, /
&OBST ID='External stairs', SURF_ID='Gypsum wall', XB=-35.562,-33.688,4.030,4.402,1.501,1.741, /
&OBST ID='External stairs', SURF_ID='Gypsum wall', XB=-35.562,-33.688,4.278,4.650,1.741,1.861, /
&OBST ID='External stairs', SURF_ID='Gypsum wall', XB=-35.562,-33.688,4.526,5.022,1.861,1.981, /
&OBST ID='External stairs', SURF_ID='Gypsum wall', XB=-35.562,-33.688,4.526,5.146,1.981,2.101, /
&OBST ID='External stairs', SURF_ID='Gypsum wall', XB=-35.562,-33.688,4.898,5.146,2.101,2.221, /
&OBST ID='External stairs', SURF_ID='Gypsum wall', XB=-35.562,-31.562,5.146,6.138,1.981,2.221, /
&OBST ID='External stairs', SURF_ID='Gypsum wall', XB=-35.438,-31.688,6.138,6.262,1.981,2.221, /
&OBST ID='External stairs', SURF_ID='Gypsum wall', XB=-35.312,-35.188,6.262,6.386,1.981,2.221, /
! ... 83 like lines cut
! Fire doors
&OBST ID='Fire doors', FYI='always closed', SURF_ID='Gypsum wall',
      XB=-1.062,1.062,4.402,4.650,-0.060,2.221, /
&OBST ID='Fire doors', FYI='always closed', SURF_ID='Gypsum wall',
      XB=-1.062,1.062,4.402,4.650,4.383,6.664, /
&OBST ID='Fire doors', FYI='always closed', SURF_ID='Gypsum wall',
      XB=-1.062,1.062,7.750,7.998,-0.060,2.221, /
&OBST ID='Fire doors', FYI='always closed', SURF_ID='Gypsum wall',
      XB=-1.062,1.062,7.750,7.998,4.383,6.664, /
! Floors
&OBST ID='Floors', SURF_ID='Gypsum wall', XB=-30.312,-2.062,-2.046,1.054,4.263,4.503, /
&OBST ID='Floors', SURF_ID='Gypsum wall', XB=-30.312,-2.062,-2.046,1.178,3.062,4.263, /
&OBST ID='Floors', SURF_ID='Gypsum wall', XB=-30.312,-1.938,1.054,13.826,4.263,4.503, /
&OBST ID='Floors', SURF_ID='Gypsum wall', XB=-30.312,-1.938,9.362,13.826,7.505,8.585, /
&OBST ID='Floors', SURF_ID='Gypsum wall', XB=-30.312,-1.938,9.610,13.826,3.062,4.263, /
&OBST ID='Floors', SURF_ID='Gypsum wall', XB=-30.312,-1.812,1.178,9.610,3.062,4.263, /
&OBST ID='Floors', SURF_ID='Gypsum wall', XB=-30.312,-1.438,-1.426,1.426,7.384,8.585, /
&OBST ID='Floors', SURF_ID='Gypsum wall', XB=-30.312,30.312,-13.826,-2.046,3.062,4.503, /
&OBST ID='Floors', SURF_ID='Gypsum wall', XB=-30.312,30.312,-13.826,-1.426,7.505,8.585, /
&OBST ID='Floors', SURF_ID='Gypsum wall', XB=-30.312,30.312,1.426,9.362,7.505,8.585, /
&OBST ID='Floors', SURF_ID='Gypsum wall', XB=-29.812,-3.562,1.426,2.294,7.024,7.505, /
&OBST ID='Floors', SURF_ID='Gypsum wall', XB=-29.812,-1.438,-1.426,1.426,7.024,7.384, /
&OBST ID='Floors', SURF_ID='Gypsum wall', XB=-29.812,29.812,-2.294,-1.426,7.024,7.505, /
&OBST ID='Floors', SURF_ID='Gypsum wall', XB=-21.938,-2.062,-1.054,1.798,2.582,3.062, /
&OBST ID='Floors', SURF_ID='Gypsum wall', XB=-21.938,-1.938,-2.294,-1.054,2.582,3.062, /
&OBST ID='Floors', SURF_ID='Gypsum wall', XB=-21.938,-1.312,1.798,2.294,2.582,3.062, /
&OBST ID='Floors', SURF_ID='Gypsum wall', XB=-18.938,-18.812,2.294,2.418,7.024,7.505, /
&OBST ID='Floors', SURF_ID='Gypsum wall', XB=-18.938,-18.688,-2.418,-2.294,7.024,7.505, /
&OBST ID='Floors', SURF_ID='Gypsum wall', XB=-18.812,-18.688,-2.542,-2.418,7.024,7.505, /
&OBST ID='Floors', SURF_ID='Gypsum wall', XB=-18.812,-16.188,2.294,2.542,7.024,7.505, /
! ... 144 like lines cut
! Ground
&VENT ID='Ground', SURF_ID='INERT', PBZ=0.000, /
! Internal stairs
&OBST ID='Internal stairs', SURF_ID='Gypsum wall', XB=-2.062,-0.062,7.874,10.230,4.142,4.263, /
&OBST ID='Internal stairs', SURF_ID='Gypsum wall', XB=-2.062,-0.062,9.238,9.610,8.225,8.585, /
&OBST ID='Internal stairs', SURF_ID='Gypsum wall', XB=-2.062,-0.062,9.486,10.230,8.105,8.225, /
&OBST ID='Internal stairs', SURF_ID='Gypsum wall', XB=-2.062,-0.062,9.610,9.858,7.985,8.105, /
&OBST ID='Internal stairs', SURF_ID='Gypsum wall', XB=-2.062,-0.062,9.610,9.982,8.225,8.345, /
&OBST ID='Internal stairs', SURF_ID='Gypsum wall', XB=-2.062,-0.062,9.734,9.982,4.263,4.503, /
&OBST ID='Internal stairs', SURF_ID='Gypsum wall', XB=-2.062,-0.062,9.734,10.602,4.022,4.142, /
&OBST ID='Internal stairs', SURF_ID='Gypsum wall', XB=-2.062,-0.062,9.858,10.602,7.865,8.105, /
&OBST ID='Internal stairs', SURF_ID='Gypsum wall', XB=-2.062,-0.062,9.982,10.850,3.902,4.022, /
&OBST ID='Internal stairs', SURF_ID='Gypsum wall', XB=-2.062,-0.062,10.106,10.850,3.782,3.902, /
&OBST ID='Internal stairs', SURF_ID='Gypsum wall', XB=-2.062,-0.062,10.106,10.850,7.745,7.865, /
&OBST ID='Internal stairs', SURF_ID='Gypsum wall', XB=-2.062,-0.062,10.230,10.850,7.625,7.745, /
&OBST ID='Internal stairs', SURF_ID='Gypsum wall', XB=-2.062,-0.062,10.354,11.098,3.662,3.782, /
&OBST ID='Internal stairs', SURF_ID='Gypsum wall', XB=-2.062,-0.062,10.478,10.850,7.505,7.625, /
&OBST ID='Internal stairs', SURF_ID='Gypsum wall', XB=-2.062,-0.062,10.602,10.726,3.542,3.662, /
&OBST ID='Internal stairs', SURF_ID='Gypsum wall', XB=-2.062,-0.062,10.726,10.850,7.384,7.505, /
&OBST ID='Internal stairs', SURF_ID='Gypsum wall', XB=-2.062,-0.062,10.726,11.470,3.422,3.662, /
&OBST ID='Internal stairs', SURF_ID='Gypsum wall', XB=-2.062,-0.062,10.850,11.098,7.264,7.745, /
&OBST ID='Internal stairs', SURF_ID='Gypsum wall', XB=-2.062,-0.062,10.974,11.718,3.302,3.422, /
&OBST ID='Internal stairs', SURF_ID='Gypsum wall', XB=-2.062,-0.062,11.098,11.470,7.384,7.505, /
! ... 60 like lines cut
! Panels transparent
&OBST ID='Panels transparent', SURF_ID='Glass pane', XB=-1.562,-1.438,-1.426,1.426,9.546,12.187, /
&OBST ID='Panels transparent', SURF_ID='Glass pane', XB=-1.562,1.562,-1.550,-1.426,9.546,12.187, /
&OBST ID='Panels transparent', SURF_ID='Glass pane', XB=-1.562,1.562,1.426,1.550,9.546,12.187, /
&OBST ID='Panels transparent', SURF_ID='Glass pane', XB=-1.438,1.438,-1.550,-1.426,12.187,12.307, /
&OBST ID='Panels transparent', SURF_ID='Glass pane', XB=-1.438,1.438,1.426,1.550,12.187,12.307, /
&OBST ID='Panels transparent', SURF_ID='Glass pane', XB=1.438,1.562,-1.426,1.426,9.546,12.187, /
! Roof
&OBST ID='Roof', SURF_ID='Gypsum wall', SAWTOOTH=.FALSE.,
      XB=-5.312,-4.938,-4.650,13.826,11.227,11.347, /
&OBST ID='Roof', SURF_ID='Gypsum wall', SAWTOOTH=.FALSE.,
      XB=-5.312,-4.562,-4.650,13.826,11.347,11.467, /
&OBST ID='Roof', SURF_ID='Gypsum wall', SAWTOOTH=.FALSE.,
      XB=-4.938,-4.812,13.702,13.826,11.227,11.347, /
&OBST ID='Roof', SURF_ID='Gypsum wall', SAWTOOTH=.FALSE.,
      XB=-4.938,-4.188,-4.650,13.826,11.467,11.587, /
&OBST ID='Roof', SURF_ID='Gypsum wall', SAWTOOTH=.FALSE.,
      XB=-4.688,-3.812,-2.170,13.330,11.587,11.707, /
&OBST ID='Roof', SURF_ID='Gypsum wall', SAWTOOTH=.FALSE.,
      XB=-4.562,-3.812,-4.650,-2.170,11.587,11.707, /
&OBST ID='Roof', SURF_ID='Gypsum wall', SAWTOOTH=.FALSE.,
      XB=-4.562,-3.812,13.330,13.826,11.587,11.707, /
&OBST ID='Roof', SURF_ID='Gypsum wall', SAWTOOTH=.FALSE.,
      XB=-4.312,-3.312,-4.650,13.702,11.707,11.827, /
&OBST ID='Roof', SURF_ID='Gypsum wall', SAWTOOTH=.FALSE.,
      XB=-4.188,-3.312,13.702,13.826,11.707,11.827, /
&OBST ID='Roof', SURF_ID='Gypsum wall', SAWTOOTH=.FALSE.,
      XB=-3.938,-3.812,13.454,13.826,11.827,11.947, /
&OBST ID='Roof', SURF_ID='Gypsum wall', SAWTOOTH=.FALSE.,
      XB=-3.812,-2.812,-4.650,13.826,11.827,11.947, /
&OBST ID='Roof', SURF_ID='Gypsum wall', SAWTOOTH=.FALSE.,
      XB=-3.438,-2.438,-2.542,-2.046,11.947,12.067, /
&OBST ID='Roof', SURF_ID='Gypsum wall', SAWTOOTH=.FALSE.,
      XB=-3.438,-2.312,-4.650,-2.542,11.947,12.067, /
&OBST ID='Roof', SURF_ID='Gypsum wall', SAWTOOTH=.FALSE.,
      XB=-3.438,-2.188,-2.046,12.958,11.947,12.067, /
&OBST ID='Roof', SURF_ID='Gypsum wall', SAWTOOTH=.FALSE.,
      XB=-3.312,-2.188,12.958,13.826,11.947,12.067, /
&OBST ID='Roof', SURF_ID='Gypsum wall', SAWTOOTH=.FALSE.,
      XB=-2.938,-2.188,-4.650,12.958,12.067,12.187, /
&OBST ID='Roof', SURF_ID='Gypsum wall', SAWTOOTH=.FALSE.,
      XB=-2.812,-2.688,12.958,13.826,11.827,11.947, /
&OBST ID='Roof', SURF_ID='Gypsum wall', SAWTOOTH=.FALSE.,
      XB=-2.812,-2.188,12.958,13.826,12.067,12.187, /
&OBST ID='Roof', SURF_ID='Gypsum wall', SAWTOOTH=.FALSE.,
      XB=-2.438,-2.312,-2.666,-2.046,12.187,12.427, /
&OBST ID='Roof', SURF_ID='Gypsum wall', SAWTOOTH=.FALSE.,
      XB=-2.438,-2.312,-2.170,-2.046,11.947,12.067, /
&OBST ID='Roof', SURF_ID='Gypsum wall', SAWTOOTH=.FALSE.,
      XB=-2.312,-2.188,-4.650,-2.790,11.947,12.067, /
&OBST ID='Roof', SURF_ID='Gypsum wall', SAWTOOTH=.FALSE.,
      XB=-2.312,-2.188,-2.914,-2.790,12.187,12.427, /
&OBST ID='Roof', SURF_ID='Gypsum wall', SAWTOOTH=.FALSE.,
      XB=-2.312,-2.188,13.578,13.826,12.187,12.307, /
&OBST ID='Roof', SURF_ID='Gypsum wall', SAWTOOTH=.FALSE.,
      XB=-2.188,-1.938,-2.046,-1.922,11.947,12.067, /
&OBST ID='Roof', SURF_ID='Gypsum wall', SAWTOOTH=.FALSE., XB=-2.188,-1.438,-1.674,1.550,12.067,12.187, /
&OBST ID='Roof', SURF_ID='Gypsum wall', SAWTOOTH=.FALSE., XB=-2.188,-1.438,-1.550,1.550,12.187,12.307, /
&OBST ID='Roof', SURF_ID='Gypsum wall', SAWTOOTH=.FALSE.,
      XB=-2.188,-1.312,-4.650,-1.798,12.067,12.187, /
&OBST ID='Roof', SURF_ID='Gypsum wall', SAWTOOTH=.FALSE., XB=-2.188,-1.312,1.550,15.438,12.067,12.307, /
&OBST ID='Roof', SURF_ID='Gypsum wall', SAWTOOTH=.FALSE.,
      XB=-2.188,-0.688,-1.798,-1.674,12.067,12.187, /
&OBST ID='Roof', SURF_ID='Gypsum wall', SAWTOOTH=.FALSE., XB=-2.188,2.188,-4.650,-1.550,12.187,12.307, /
&OBST ID='Roof', SURF_ID='Gypsum wall', SAWTOOTH=.FALSE.,
      XB=-1.438,-0.812,-1.674,-1.550,12.067,12.187, /
&OBST ID='Roof', SURF_ID='Gypsum wall', SAWTOOTH=.FALSE.,
      XB=-1.312,-1.188,-4.030,-2.542,12.067,12.187, /
&OBST ID='Roof', SURF_ID='Gypsum wall', SAWTOOTH=.FALSE., XB=-1.312,-1.188,1.550,1.798,12.067,12.187, /
&OBST ID='Roof', SURF_ID='Gypsum wall', SAWTOOTH=.FALSE.,
      XB=-1.312,-1.188,14.198,15.438,12.307,12.427, /
&OBST ID='Roof', SURF_ID='Gypsum wall', SAWTOOTH=.FALSE.,
      XB=-1.312,-0.938,-2.542,-1.798,12.067,12.187, /
&OBST ID='Roof', SURF_ID='Gypsum wall', SAWTOOTH=.FALSE., XB=-1.312,2.188,1.550,15.438,12.187,12.307, /
&OBST ID='Roof', SURF_ID='Gypsum wall', SAWTOOTH=.FALSE.,
      XB=-1.188,-1.062,-3.286,-2.542,12.067,12.187, /
&OBST ID='Roof', SURF_ID='Gypsum wall', SAWTOOTH=.FALSE.,
      XB=-1.188,-0.938,-4.650,-3.782,12.307,12.427, /
&OBST ID='Roof', SURF_ID='Gypsum wall', SAWTOOTH=.FALSE., XB=-1.188,1.188,2.790,15.438,12.307,12.427, /
&OBST ID='Roof', SURF_ID='Gypsum wall', SAWTOOTH=.FALSE.,
      XB=-1.062,-0.938,-3.782,-3.162,12.307,12.427, /
&OBST ID='Roof', SURF_ID='Gypsum wall', SAWTOOTH=.FALSE.,
      XB=-1.062,-0.688,-1.674,-1.550,12.307,12.427, /
&OBST ID='Roof', SURF_ID='Gypsum wall', SAWTOOTH=.FALSE., XB=-1.062,0.938,1.674,1.922,12.307,12.427, /
&OBST ID='Roof', SURF_ID='Gypsum wall', SAWTOOTH=.FALSE., XB=-1.062,1.062,1.922,2.790,12.307,12.427, /
&OBST ID='Roof', SURF_ID='Gypsum wall', SAWTOOTH=.FALSE.,
      XB=-0.938,-0.812,-1.922,-1.798,12.067,12.187, /
&OBST ID='Roof', SURF_ID='Gypsum wall', SAWTOOTH=.FALSE., XB=-0.938,0.938,-4.650,-2.418,12.307,12.427, /
&OBST ID='Roof', SURF_ID='Gypsum wall', SAWTOOTH=.FALSE., XB=-0.938,0.938,1.550,1.674,12.307,12.427, /
&OBST ID='Roof', SURF_ID='Gypsum wall', SAWTOOTH=.FALSE., XB=-0.812,0.812,-2.418,-1.798,12.307,12.427, /
&OBST ID='Roof', SURF_ID='Gypsum wall', SAWTOOTH=.FALSE., XB=-0.688,0.688,-1.798,-1.550,12.307,12.427, /
&OBST ID='Roof', SURF_ID='Gypsum wall', SAWTOOTH=.FALSE., XB=-0.062,0.062,-1.550,-1.426,12.187,12.427, /
&OBST ID='Roof', SURF_ID='Gypsum wall', SAWTOOTH=.FALSE., XB=0.688,1.062,-1.674,-1.550,12.307,12.427, /
&OBST ID='Roof', SURF_ID='Gypsum wall', SAWTOOTH=.FALSE., XB=0.688,1.188,-1.798,-1.674,12.067,12.187, /
&OBST ID='Roof', SURF_ID='Gypsum wall', SAWTOOTH=.FALSE., XB=0.812,0.938,-1.922,-1.798,12.067,12.187, /
&OBST ID='Roof', SURF_ID='Gypsum wall', SAWTOOTH=.FALSE., XB=0.812,1.188,-1.674,-1.550,12.067,12.187, /
&OBST ID='Roof', SURF_ID='Gypsum wall', SAWTOOTH=.FALSE., XB=0.938,1.062,-3.782,-3.162,12.307,12.427, /
&OBST ID='Roof', SURF_ID='Gypsum wall', SAWTOOTH=.FALSE., XB=0.938,1.062,-2.542,-1.798,12.067,12.187, /
&OBST ID='Roof', SURF_ID='Gypsum wall', SAWTOOTH=.FALSE., XB=0.938,1.188,-4.650,-3.782,12.307,12.427, /
&OBST ID='Roof', SURF_ID='Gypsum wall', SAWTOOTH=.FALSE., XB=1.062,1.188,-3.286,-1.798,12.067,12.187, /
&OBST ID='Roof', SURF_ID='Gypsum wall', SAWTOOTH=.FALSE., XB=1.188,1.312,1.550,1.922,12.067,12.187, /
&OBST ID='Roof', SURF_ID='Gypsum wall', SAWTOOTH=.FALSE., XB=1.188,1.312,13.702,15.438,12.307,12.427, /
&OBST ID='Roof', SURF_ID='Gypsum wall', SAWTOOTH=.FALSE., XB=1.188,1.438,-4.030,-1.550,12.067,12.187, /
&OBST ID='Roof', SURF_ID='Gypsum wall', SAWTOOTH=.FALSE., XB=1.312,1.438,-4.650,-4.030,12.067,12.187, /
&OBST ID='Roof', SURF_ID='Gypsum wall', SAWTOOTH=.FALSE., XB=1.312,2.188,13.826,15.438,12.067,12.187, /
&OBST ID='Roof', SURF_ID='Gypsum wall', SAWTOOTH=.FALSE., XB=1.312,2.812,12.958,13.826,12.067,12.187, /
&OBST ID='Roof', SURF_ID='Gypsum wall', SAWTOOTH=.FALSE., XB=1.312,2.938,1.550,12.958,12.067,12.187, /
! ... 21 like lines cut
! Roof transparent
&OBST ID='Roof transparent', SURF_ID='Glass pane', SAWTOOTH=.FALSE., DEVC_ID='Roof break',
      XB=-1.562,-1.312,-1.550,1.550,12.067,12.187, /
&OBST ID='Roof transparent', SURF_ID='Glass pane', SAWTOOTH=.FALSE., DEVC_ID='Roof break',
      XB=-1.562,1.562,-1.550,1.550,12.187,12.307, /
&OBST ID='Roof transparent', SURF_ID='Glass pane', SAWTOOTH=.FALSE., DEVC_ID='Roof break',
      XB=-1.312,-1.188,-1.550,-1.178,12.307,12.427, /
&OBST ID='Roof transparent', SURF_ID='Glass pane', SAWTOOTH=.FALSE., DEVC_ID='Roof break',
      XB=-1.312,-1.188,1.178,1.550,12.307,12.427, /
&OBST ID='Roof transparent', SURF_ID='Glass pane', SAWTOOTH=.FALSE., DEVC_ID='Roof break',
      XB=-1.188,1.188,-1.550,1.550,12.307,12.427, /
&OBST ID='Roof transparent', SURF_ID='Glass pane', SAWTOOTH=.FALSE., DEVC_ID='Roof break',
      XB=1.188,1.312,-1.550,-1.302,12.307,12.427, /
&OBST ID='Roof transparent', SURF_ID='Glass pane', SAWTOOTH=.FALSE., DEVC_ID='Roof break',
      XB=1.188,1.312,1.178,1.550,12.307,12.427, /
&OBST ID='Roof transparent', SURF_ID='Glass pane', SAWTOOTH=.FALSE., DEVC_ID='Roof break',
      XB=1.312,1.562,-1.550,1.550,12.067,12.187, /
! Walls
&OBST ID='Walls', SURF_ID='Gypsum wall', XB=-30.312,-30.188,-13.826,-11.966,-0.060,3.182, /
&OBST ID='Walls', SURF_ID='Gypsum wall', XB=-30.312,-30.188,-13.826,-11.966,5.583,7.384, /
&OBST ID='Walls', SURF_ID='Gypsum wall', XB=-30.312,-30.188,-13.578,-2.418,4.383,5.583, /
&OBST ID='Walls', SURF_ID='Gypsum wall', XB=-30.312,-30.188,-13.578,-2.418,7.384,7.625, /
&OBST ID='Walls', SURF_ID='Gypsum wall', XB=-30.312,-30.188,-11.966,-2.046,2.942,3.182, /
&OBST ID='Walls', SURF_ID='Gypsum wall', XB=-30.312,-30.188,-7.998,-6.882,1.141,2.942, /
&OBST ID='Walls', SURF_ID='Gypsum wall', XB=-30.312,-30.188,-7.998,-6.882,5.583,7.384, /
&OBST ID='Walls', SURF_ID='Gypsum wall', XB=-30.312,-30.188,-7.998,-3.038,-0.060,1.141, /
&OBST ID='Walls', SURF_ID='Gypsum wall', XB=-30.312,-30.188,-3.038,-2.418,5.583,7.384, /
&OBST ID='Walls', SURF_ID='Gypsum wall', XB=-30.312,-30.188,-3.038,-2.046,2.101,2.942, /
&OBST ID='Walls', SURF_ID='Gypsum wall', XB=-30.312,-30.188,-3.038,3.038,-0.060,2.101, /
&OBST ID='Walls', SURF_ID='Gypsum wall', XB=-30.312,-30.188,-1.798,1.798,2.101,3.182, /
&OBST ID='Walls', SURF_ID='Gypsum wall', XB=-30.312,-30.188,-1.302,-0.930,4.383,7.384, /
&OBST ID='Walls', SURF_ID='Gypsum wall', XB=-30.312,-30.188,-1.302,0.930,7.384,7.625, /
&OBST ID='Walls', SURF_ID='Gypsum wall', XB=-30.312,-30.188,0.930,1.302,6.544,7.625, /
&OBST ID='Walls', SURF_ID='Gypsum wall', XB=-30.312,-30.188,0.930,2.418,5.583,6.544, /
&OBST ID='Walls', SURF_ID='Gypsum wall', XB=-30.312,-30.188,0.930,11.966,4.383,5.583, /
&OBST ID='Walls', SURF_ID='Gypsum wall', XB=-30.312,-30.188,2.046,3.038,2.101,3.182, /
&OBST ID='Walls', SURF_ID='Gypsum wall', XB=-30.312,-30.188,2.418,3.038,5.583,7.384, /
&OBST ID='Walls', SURF_ID='Gypsum wall', XB=-30.312,-30.188,2.418,11.966,7.384,7.625, /
! ... 692 like lines cut
! Walls stairs
&OBST ID='Walls stairs', SURF_ID='Gypsum wall', XB=-0.188,0.188,9.238,9.610,4.383,4.503, /
&OBST ID='Walls stairs', SURF_ID='Gypsum wall', XB=-0.188,0.188,9.238,10.602,4.503,5.103, /
&OBST ID='Walls stairs', SURF_ID='Gypsum wall', XB=-0.188,0.188,9.238,11.718,5.103,5.223, /
&OBST ID='Walls stairs', SURF_ID='Gypsum wall', XB=-0.188,0.188,9.238,11.842,5.223,7.024, /
&OBST ID='Walls stairs', SURF_ID='Gypsum wall', XB=-0.188,0.188,9.486,9.610,7.865,8.345, /
&OBST ID='Walls stairs', SURF_ID='Gypsum wall', XB=-0.188,0.188,9.486,10.354,7.024,7.865, /
&OBST ID='Walls stairs', SURF_ID='Gypsum wall', XB=-0.188,0.188,9.610,9.734,8.105,8.225, /
&OBST ID='Walls stairs', SURF_ID='Gypsum wall', XB=-0.188,0.188,9.610,9.982,4.142,4.263, /
&OBST ID='Walls stairs', SURF_ID='Gypsum wall', XB=-0.188,0.188,9.610,9.982,7.865,8.105, /
&OBST ID='Walls stairs', SURF_ID='Gypsum wall', XB=-0.188,0.188,9.610,10.230,4.263,4.503, /
&OBST ID='Walls stairs', SURF_ID='Gypsum wall', XB=-0.188,0.188,9.982,10.230,7.865,7.985, /
&OBST ID='Walls stairs', SURF_ID='Gypsum wall', XB=-0.188,0.188,10.230,10.478,4.383,4.503, /
&OBST ID='Walls stairs', SURF_ID='Gypsum wall', XB=-0.188,0.188,10.354,10.602,7.625,7.745, /
&OBST ID='Walls stairs', SURF_ID='Gypsum wall', XB=-0.188,0.188,10.354,10.850,7.505,7.625, /
&OBST ID='Walls stairs', SURF_ID='Gypsum wall', XB=-0.188,0.188,10.354,10.974,7.384,7.505, /
&OBST ID='Walls stairs', SURF_ID='Gypsum wall', XB=-0.188,0.188,10.354,11.222,7.024,7.384, /
&OBST ID='Walls stairs', SURF_ID='Gypsum wall', XB=-0.188,0.188,10.602,10.850,4.623,5.103, /
&OBST ID='Walls stairs', SURF_ID='Gypsum wall', XB=-0.188,0.188,10.850,11.098,4.743,4.863, /
&OBST ID='Walls stairs', SURF_ID='Gypsum wall', XB=-0.188,0.188,10.850,11.222,4.863,4.983, /
&OBST ID='Walls stairs', SURF_ID='Gypsum wall', XB=-0.188,0.188,10.850,11.470,4.983,5.103, /
! ... 19 like lines cut
! Window panes
&OBST ID='Window panes', SURF_ID='Glass pane', XB=-30.312,-30.188,-12.090,-10.850,2.221,3.062, /
&OBST ID='Window panes', SURF_ID='Glass pane', XB=-30.312,-30.188,-12.090,-7.874,5.463,7.505, /
&OBST ID='Window panes', SURF_ID='Glass pane', XB=-30.312,-30.188,-10.850,-7.874,-0.060,3.062, /
&OBST ID='Window panes', SURF_ID='Glass pane', XB=-30.312,-30.188,-7.006,-2.914,1.021,3.062, /
&OBST ID='Window panes', SURF_ID='Glass pane', XB=-30.312,-30.188,-7.006,-2.914,5.463,7.505, /
&OBST ID='Window panes', SURF_ID='Glass pane', XB=-30.312,-30.188,2.914,7.006,1.021,3.062, /
&OBST ID='Window panes', SURF_ID='Glass pane', XB=-30.312,-30.188,2.914,7.006,5.463,7.505, /
&OBST ID='Window panes', SURF_ID='Glass pane', XB=-30.312,-30.188,7.998,10.850,-0.060,3.062, /
&OBST ID='Window panes', SURF_ID='Glass pane', XB=-30.312,-30.188,7.998,12.090,5.463,7.505, /
&OBST ID='Window panes', SURF_ID='Glass pane', XB=-30.312,-30.188,10.850,12.090,2.221,3.062, /
&OBST ID='Window panes', SURF_ID='Glass pane', XB=-29.562,-25.438,-13.826,-13.578,1.021,3.062, /
&OBST ID='Window panes', SURF_ID='Glass pane', XB=-29.562,-25.438,-13.826,-13.578,5.463,7.505, /
&OBST ID='Window panes', SURF_ID='Glass pane', XB=-29.562,-25.438,13.702,13.826,1.021,3.062, /
&OBST ID='Window panes', SURF_ID='Glass pane', XB=-29.562,-25.438,13.702,13.826,5.463,7.505, /
&OBST ID='Window panes', SURF_ID='Glass pane', XB=-24.562,-20.438,-13.826,-13.578,1.021,3.062, /
&OBST ID='Window panes', SURF_ID='Glass pane', XB=-24.562,-20.438,-13.826,-13.578,5.463,7.505, /
&OBST ID='Window panes', SURF_ID='Glass pane', XB=-24.562,-20.438,13.702,13.826,1.021,3.062, /
&OBST ID='Window panes', SURF_ID='Glass pane', XB=-24.562,-20.438,13.702,13.826,5.463,7.505, /
&OBST ID='Window panes', SURF_ID='Glass pane', XB=-19.562,-15.438,-13.826,-13.578,1.021,3.062, /
&OBST ID='Window panes', SURF_ID='Glass pane', XB=-19.562,-15.438,-13.826,-13.578,5.463,7.505, /
! ... 56 like lines cut

!!! Evacuation


!!! Control logic and output

&DEVC ID='Roof break', FYI='Break the roof', SURF_ID='Glass pane',
      QUANTITY='TEMPERATURE',  SETPOINT=150., INITIAL_STATE=.TRUE., XYZ=0.000,0.000,12.027, /
! Slcf temp
&SLCF FYI='(Slcf temp)', QUANTITY='TEMPERATURE', VECTOR=.TRUE., PBY=-0.000, /
&SLCF FYI='(Slcf temp)', QUANTITY='TEMPERATURE', VECTOR=.TRUE., PBX=0.000, /
! Slcf visibility
&SLCF FYI='(Slcf visibility)', QUANTITY='VISIBILITY', PBY=-0.000, /
&SLCF FYI='(Slcf visibility)', QUANTITY='VISIBILITY', PBX=0.000, /
&DEVC ID='Smoke detector', PROP_ID='acme smoke detector', XYZ=5.000,0.000,2.500, /

!!! Others


&TAIL /
