
!!! Generated by BlenderFDS 2.0.0 on Blender 2.63 (sub 17)

! Blender file: /home/egissi/Documenti/20100423 Genova, BlenderFDS/releases/BlenderFDS_2.0.0/examples/test-suite/test.blend
! Date: Mon, 20 Aug 2012 12:03:38

&HEAD CHID='test_s1', TITLE='Test fire, scenario 1: burner near the door', /

!!! External config file

&TIME T_END=600.0 /

&REAC ID='polyurethane', SOOT_YIELD=0.1875, CO_YIELD=0.02775,
      C=1.0, H=1.75, O=0.25, N=0.065,
      HEAT_OF_COMBUSTION=25300., IDEAL=.TRUE. /
      Gas phase reaction: polyurethane flexible foam (means) from
      Tewarson SFPE Handbook 3rd ed,
      SFPE handbook table 3-4.14, p. 3-112.

&MATL ID='gypsum plaster', CONDUCTIVITY=0.48,
      SPECIFIC_HEAT=0.84, DENSITY=1440. /
      Thermo-physical properties of gypsum plaster.

&PROP ID='acme smoke detector', QUANTITY='CHAMBER OBSCURATION',
      LENGTH=1.8, ACTIVATION_OBSCURATION=3.28 /
      
&ISOF QUANTITY='TEMPERATURE', VALUE(1)=60. /
&ISOF QUANTITY='VISIBILITY', VALUE(1)=10. /
&BNDF QUANTITY='ADIABATIC SURFACE TEMPERATURE' /

!!! Boundary condition defs

! burner
&SURF ID='burner', RGB=204,0,0, HRRPUA=1000., /
! glass
&SURF ID='glass', RGB=0,123,204, TRANSPARENCY=0.250, /
! ground
&SURF ID='ground', RGB=157,204,148, /
! gypsum wall
&SURF ID='gypsum wall', FYI='30 mm thick gypsum wall', RGB=133,204,67,
      MATL_ID='gypsum plaster', THICKNESS=0.03, /

!!! Computational domain

! domain, 100000 cells, cell size is 0.100 x 0.100 x 0.100, from bounding box, in 0.000 s
&MESH ID='domain', FYI='domain', IJK=50,50,40,
      XB=-2.500,2.500,-2.500,2.500,0.000,4.000, /

!!! Geometry

! burner bc_s1, from 1 faces, in 0.000 s
&VENT ID='burner bc_s1', SURF_ID='burner', XB=0.550,1.050,0.550,1.050,1.001,1.001, /
! burner_s1, from bounding box, in 0.000 s
&OBST ID='burner_s1', FYI='Burner of scenario 1', SURF_ID='INERT',
      XB=0.550,1.050,0.550,1.050,0.000,1.000, /
! ceiling, from voxelization (19 voxels, voxel size is 0.050), in 0.153 s
&OBST ID='ceiling_0', SURF_ID='gypsum wall', SAWTOOTH=.FALSE., THICKEN=.TRUE.,
      XB=-0.726,1.476,-1.326,-1.274,2.874,3.076, /
&OBST ID='ceiling_1', SURF_ID='gypsum wall', SAWTOOTH=.FALSE., THICKEN=.TRUE.,
      XB=-0.876,1.476,-1.226,-1.174,2.874,3.076, /
&OBST ID='ceiling_2', SURF_ID='gypsum wall', SAWTOOTH=.FALSE., THICKEN=.TRUE.,
      XB=-0.276,1.476,-1.476,-1.424,2.874,3.076, /
&OBST ID='ceiling_3', SURF_ID='gypsum wall', SAWTOOTH=.FALSE., THICKEN=.TRUE.,
      XB=-0.926,1.476,-1.176,-1.124,2.874,3.076, /
&OBST ID='ceiling_4', SURF_ID='gypsum wall', SAWTOOTH=.FALSE., THICKEN=.TRUE.,
      XB=-1.476,1.476,-0.276,-0.024,2.874,3.076, /
&OBST ID='ceiling_5', SURF_ID='gypsum wall', SAWTOOTH=.FALSE., THICKEN=.TRUE.,
      XB=-1.376,1.476,-0.626,-0.524,2.874,3.076, /
&OBST ID='ceiling_6', SURF_ID='gypsum wall', SAWTOOTH=.FALSE., THICKEN=.TRUE.,
      XB=-0.526,1.476,-1.426,-1.374,2.874,3.076, /
&OBST ID='ceiling_7', SURF_ID='gypsum wall', SAWTOOTH=.FALSE., THICKEN=.TRUE.,
      XB=-0.776,1.476,-1.276,-1.224,2.874,3.076, /
&OBST ID='ceiling_8', SURF_ID='gypsum wall', SAWTOOTH=.FALSE., THICKEN=.TRUE.,
      XB=-1.276,1.476,-0.776,-0.724,2.874,3.076, /
&OBST ID='ceiling_9', SURF_ID='gypsum wall', SAWTOOTH=.FALSE., THICKEN=.TRUE.,
      XB=-1.526,1.476,-0.026,1.476,2.874,3.076, /
&OBST ID='ceiling_10', SURF_ID='gypsum wall', SAWTOOTH=.FALSE., THICKEN=.TRUE.,
      XB=-1.126,1.476,-1.026,-0.924,2.874,3.076, /
&OBST ID='ceiling_11', SURF_ID='gypsum wall', SAWTOOTH=.FALSE., THICKEN=.TRUE.,
      XB=-1.226,1.476,-0.876,-0.774,2.874,3.076, /
&OBST ID='ceiling_12', SURF_ID='gypsum wall', SAWTOOTH=.FALSE., THICKEN=.TRUE.,
      XB=-1.026,1.476,-1.126,-1.074,2.874,3.076, /
&OBST ID='ceiling_13', SURF_ID='gypsum wall', SAWTOOTH=.FALSE., THICKEN=.TRUE.,
      XB=-1.076,1.476,-1.076,-1.024,2.874,3.076, /
&OBST ID='ceiling_14', SURF_ID='gypsum wall', SAWTOOTH=.FALSE., THICKEN=.TRUE.,
      XB=-0.626,1.476,-1.376,-1.324,2.874,3.076, /
&OBST ID='ceiling_15', SURF_ID='gypsum wall', SAWTOOTH=.FALSE., THICKEN=.TRUE.,
      XB=-1.426,1.476,-0.526,-0.274,2.874,3.076, /
&OBST ID='ceiling_16', SURF_ID='gypsum wall', SAWTOOTH=.FALSE., THICKEN=.TRUE.,
      XB=-0.026,1.476,-1.526,-1.474,2.874,3.076, /
&OBST ID='ceiling_17', SURF_ID='gypsum wall', SAWTOOTH=.FALSE., THICKEN=.TRUE.,
      XB=-1.176,1.476,-0.926,-0.874,2.874,3.076, /
&OBST ID='ceiling_18', SURF_ID='gypsum wall', SAWTOOTH=.FALSE., THICKEN=.TRUE.,
      XB=-1.326,1.476,-0.726,-0.624,2.874,3.076, /
! domain bc, from 5 faces, in 0.000 s
&VENT ID='domain bc_0', FYI='domain boundary conditions', SURF_ID='OPEN',
      XB=-2.500,-2.500,-2.500,2.500,0.000,4.000, /
&VENT ID='domain bc_1', FYI='domain boundary conditions', SURF_ID='OPEN',
      XB=-2.500,2.500,-2.500,-2.500,0.000,4.000, /
&VENT ID='domain bc_2', FYI='domain boundary conditions', SURF_ID='OPEN',
      XB=-2.500,2.500,-2.500,2.500,4.000,4.000, /
&VENT ID='domain bc_3', FYI='domain boundary conditions', SURF_ID='OPEN',
      XB=-2.500,2.500,2.500,2.500,0.000,4.000, /
&VENT ID='domain bc_4', FYI='domain boundary conditions', SURF_ID='OPEN',
      XB=2.500,2.500,-2.500,2.500,0.000,4.000, /
! domain bc ground, from 1 faces, in 0.000 s
&VENT ID='domain bc ground', FYI='domain boundary conditions at -z plane',
      SURF_ID='INERT', PBZ=0.000, /
! door, from 1 faces, in 0.000 s
&OBST ID='door', SURF_ID='glass', DEVC_ID='door breaker',
      XB=-0.500,0.500,1.429,1.429,0.000,2.000, /
! walls, from voxelization (92 voxels, voxel size is 0.050), in 0.374 s
&OBST ID='walls_0', SURF_ID='gypsum wall', SAWTOOTH=.FALSE.,
      XB=-1.526,-1.324,-0.026,0.026,-0.026,2.976, /
&OBST ID='walls_1', SURF_ID='gypsum wall', SAWTOOTH=.FALSE.,
      XB=-0.626,-0.574,-1.326,-1.274,-0.026,1.476, /
&OBST ID='walls_2', SURF_ID='gypsum wall', SAWTOOTH=.FALSE.,
      XB=-1.426,-1.224,-0.526,-0.474,-0.026,2.976, /
&OBST ID='walls_3', SURF_ID='gypsum wall', SAWTOOTH=.FALSE.,
      XB=-0.726,-0.674,-1.326,-1.274,1.724,2.976, /
&OBST ID='walls_4', SURF_ID='gypsum wall', SAWTOOTH=.FALSE.,
      XB=-1.326,-1.274,-0.626,-0.574,1.524,2.976, /
&OBST ID='walls_5', SURF_ID='gypsum wall', SAWTOOTH=.FALSE.,
      XB=0.474,1.476,1.374,1.476,-0.026,2.976, /
&OBST ID='walls_6', SURF_ID='gypsum wall', SAWTOOTH=.FALSE.,
      XB=-1.176,-1.074,-0.776,-0.724,-0.026,1.076, /
&OBST ID='walls_7', SURF_ID='gypsum wall', SAWTOOTH=.FALSE.,
      XB=-1.226,-1.124,-0.876,-0.824,-0.026,1.076, /
&OBST ID='walls_8', SURF_ID='gypsum wall', SAWTOOTH=.FALSE.,
      XB=-1.276,-1.224,-0.676,-0.624,-0.026,1.276, /
&OBST ID='walls_9', SURF_ID='gypsum wall', SAWTOOTH=.FALSE.,
      XB=-0.626,-0.574,-1.226,-1.174,1.724,2.976, /
&OBST ID='walls_10', SURF_ID='gypsum wall', SAWTOOTH=.FALSE.,
      XB=-0.726,-0.674,-1.276,-1.224,-0.026,1.176, /
&OBST ID='walls_11', SURF_ID='gypsum wall', SAWTOOTH=.FALSE.,
      XB=-0.776,-0.724,-1.276,-1.224,-0.026,1.126, /
&OBST ID='walls_12', SURF_ID='gypsum wall', SAWTOOTH=.FALSE.,
      XB=-0.876,-0.724,-1.176,-1.124,1.924,2.976, /
&OBST ID='walls_13', SURF_ID='gypsum wall', SAWTOOTH=.FALSE.,
      XB=1.374,1.476,-1.376,1.376,-0.026,2.976, /
&OBST ID='walls_14', SURF_ID='gypsum wall', SAWTOOTH=.FALSE.,
      XB=-0.626,-0.574,-1.276,-1.224,-0.026,1.326, /
&OBST ID='walls_15', SURF_ID='gypsum wall', SAWTOOTH=.FALSE.,
      XB=-0.526,1.476,-1.426,-1.374,-0.026,2.976, /
&OBST ID='walls_16', SURF_ID='gypsum wall', SAWTOOTH=.FALSE.,
      XB=-1.226,-1.074,-0.826,-0.774,1.924,2.976, /
&OBST ID='walls_17', SURF_ID='gypsum wall', SAWTOOTH=.FALSE.,
      XB=-0.776,-0.674,-1.226,-1.174,-0.026,1.126, /
&OBST ID='walls_18', SURF_ID='gypsum wall', SAWTOOTH=.FALSE.,
      XB=-1.226,-1.174,-0.626,-0.574,-0.026,1.276, /
&OBST ID='walls_19', SURF_ID='gypsum wall', SAWTOOTH=.FALSE.,
      XB=-0.626,0.026,-1.376,-1.324,-0.026,2.976, /
! ... 144 like lines cut

!!! Evacuation


!!! Control logic and output

! beam detectors, from 2 edges, in 0.000 s
&DEVC ID='beam detectors_0', FYI='Several beam detectors',
      QUANTITY='PATH OBSCURATION', SETPOINT=0.33 , XB=0.000,-0.800,1.250,-0.800,2.800,2.800, /
&DEVC ID='beam detectors_1', FYI='Several beam detectors',
      QUANTITY='PATH OBSCURATION', SETPOINT=0.33 , XB=1.250,-0.800,0.000,-0.800,2.800,2.800, /
! door breaker, from center point, in 0.000 s
&DEVC ID='door breaker', FYI='This device breaks the door glass',
      QUANTITY='TEMPERATURE', SETPOINT=300., INITIAL_STATE=.TRUE., XYZ=0.000,1.300,2.000, /
! slcf temperature, from 3 faces, in 0.000 s
&SLCF FYI='Temperature slice file', QUANTITY='TEMPERATURE', VECTOR=.TRUE.,
      PBX=0.000, /
&SLCF FYI='Temperature slice file', QUANTITY='TEMPERATURE', VECTOR=.TRUE.,
      PBY=0.000, /
&SLCF FYI='Temperature slice file', QUANTITY='TEMPERATURE', VECTOR=.TRUE.,
      PBZ=2.000, /
! slcf visibility, from 3 faces, in 0.000 s
&SLCF FYI='Visibility slice file', QUANTITY='VISIBILITY', PBX=0.000, /
&SLCF FYI='Visibility slice file', QUANTITY='VISIBILITY', PBY=0.000, /
&SLCF FYI='Visibility slice file', QUANTITY='VISIBILITY', PBZ=2.000, /
! smoke detector, from center point, in 0.000 s
&DEVC ID='smoke detector', FYI='This device detects smoke',
      PROP_ID='acme smoke detector', XYZ=0.000,0.000,2.800, /
! thermocouples, from 7 vertices, in 0.000 s
&DEVC ID='thermocouples_0', FYI='Series of thermocouples',
      QUANTITY='THERMOCOUPLE', XYZ=0.000,0.000,0.100, /
&DEVC ID='thermocouples_1', FYI='Series of thermocouples',
      QUANTITY='THERMOCOUPLE', XYZ=0.000,0.000,0.500, /
&DEVC ID='thermocouples_2', FYI='Series of thermocouples',
      QUANTITY='THERMOCOUPLE', XYZ=0.000,0.000,1.000, /
&DEVC ID='thermocouples_3', FYI='Series of thermocouples',
      QUANTITY='THERMOCOUPLE', XYZ=0.000,0.000,1.400, /
&DEVC ID='thermocouples_4', FYI='Series of thermocouples',
      QUANTITY='THERMOCOUPLE', XYZ=0.000,0.000,1.900, /
&DEVC ID='thermocouples_5', FYI='Series of thermocouples',
      QUANTITY='THERMOCOUPLE', XYZ=0.000,0.000,2.400, /
&DEVC ID='thermocouples_6', FYI='Series of thermocouples',
      QUANTITY='THERMOCOUPLE', XYZ=0.000,0.000,2.800, /

!!! Others


&TAIL /
! Generated in 0.536 s.
