
!!! Generated by BlenderFDS 2.0.1 on Blender 2.66 (sub 0)

! Blender file: /home/egissi/Documenti/Argomenti/BlenderFDS/releases/BlenderFDS_2.0.1/examples/cthun/cthun.blend
! Date: Mon, 06 May 2013 23:41:51

&HEAD CHID='cthun-s0-1', TITLE='Thun Castle (s0-1) fire in F-1', /

!!! External config file

&TIME T_END=0.0 /

&REAC ID='0PE+0.25PU+0EX+0.75Wood',
      SOOT_YIELD=0.058, CO_YIELD=0.01, C=1, H=1.805, O=0.614, N=0.016,
      HEAT_OF_COMBUSTION=19175., IDEAL=.TRUE. /
Chemical formula from http://www.chemindustry.com chemical info service
Other data from Tewarson SFPE Handbook 3rd ed, SFPE handbook table 3-4.14, p. 3-112.
See calculation table for all the details.

&MATL ID='Gypsum plaster', CONDUCTIVITY=0.48,
      SPECIFIC_HEAT=0.84, DENSITY=1440. /
      Thermo-physical properties of gypsum plaster.
      
&ISOF QUANTITY='TEMPERATURE', VALUE(1)=50. /
&ISOF QUANTITY='VISIBILITY', VALUE(1)=10. /
_BNDF QUANTITY='ADIABATIC SURFACE TEMPERATURE' /

!!! Boundary condition defs

! burner
&SURF ID='burner', FYI='2.5 MW max, fast fire (1MW @ 150s)', RGB=204,0,4,
      HRRPUA=500., TAU_Q=-237.17, /
! glass
&SURF ID='glass', RGB=0,255,255, TRANSPARENCY=0.250, /
! ground
&SURF ID='ground', RGB=34,221,0, /
! roof.001
&SURF ID='roof.001', RGB=68,19,3, /
! roof.002
&SURF ID='roof.002', RGB=51,14,2, /
! stair
&SURF ID='stair', RGB=142,138,28, /
! wall.001
&SURF ID='wall.001', RGB=140,151,118, /
! wall.002
&SURF ID='wall.002', RGB=170,184,83, /

!!! Computational domain

! Dom.000, 210600 cells, cell size is 0.300 x 0.300 x 0.301, from bounding box, in 0.001 s
&MESH ID='Dom.000', IJK=52,54,75, XB=-20.685,-5.085,-19.693,-3.493,9.027,31.627, /
! Dom.001, 192000 cells, cell size is 0.300 x 0.300 x 0.301, from bounding box, in 0.001 s
&MESH ID='Dom.001', IJK=40,64,75, XB=-5.085,6.915,-22.693,-3.493,9.027,31.627, /
! Dom.002, 244800 cells, cell size is 0.300 x 0.300 x 0.301, from bounding box, in 0.001 s
&MESH ID='Dom.002', IJK=68,48,75, XB=-20.685,-0.285,-3.493,10.907,9.027,31.627, /
! Dom.003, 174000 cells, cell size is 0.300 x 0.300 x 0.301, from bounding box, in 0.001 s
&MESH ID='Dom.003', IJK=58,40,75, XB=-17.685,-0.285,10.907,22.907,9.027,31.627, /
! Dom.004, 223200 cells, cell size is 0.300 x 0.300 x 0.301, from bounding box, in 0.001 s
&MESH ID='Dom.004', IJK=62,48,75, XB=-0.285,18.315,4.907,19.307,9.027,31.627, /
! Dom.005, 135000 cells, cell size is 0.300 x 0.300 x 0.301, from bounding box, in 0.001 s
&MESH ID='Dom.005', IJK=50,36,75, XB=6.915,21.915,-5.893,4.907,9.027,31.627, /
! Dom.006, 151200 cells, cell size is 0.300 x 0.300 x 0.301, from bounding box, in 0.001 s
&MESH ID='Dom.006', IJK=42,48,75, XB=6.915,19.515,-20.293,-5.893,9.027,31.627, /
! Dom.007, 50400 cells, cell size is 0.300 x 0.300 x 0.301, from bounding box, in 0.001 s
&MESH ID='Dom.007', IJK=24,28,75, IJK=24,28,75,
      XB=-0.285,6.915,-3.493,4.907,9.027,31.627, /

!!! Geometry

! A0 burner s0 s1, from bounding box, in 0.001 s
&OBST ID='A0 burner s0 s1', SURF_ID='burner',
      XB=3.398,4.398,-13.262,-12.262,9.000,10.000, /
! Dom bc hor top, from 1 faces, in 0.001 s
&VENT ID='Dom bc hor top', SURF_ID='OPEN', PBZ=31.627, /
! Dom bc vert ext, from 18 faces, in 0.003 s
&VENT ID='Dom bc vert ext_0', SURF_ID='OPEN',
      XB=-20.685,-20.685,-19.693,-3.493,9.027,31.627, /
&VENT ID='Dom bc vert ext_1', SURF_ID='OPEN',
      XB=-20.685,-20.685,-3.493,10.907,9.027,31.627, /
&VENT ID='Dom bc vert ext_2', SURF_ID='OPEN',
      XB=-20.685,-17.685,10.907,10.907,9.027,31.627, /
&VENT ID='Dom bc vert ext_3', SURF_ID='OPEN',
      XB=-20.685,-5.085,-19.693,-19.693,9.027,31.627, /
&VENT ID='Dom bc vert ext_4', SURF_ID='OPEN',
      XB=-17.685,-17.685,10.907,22.907,9.027,31.627, /
&VENT ID='Dom bc vert ext_5', SURF_ID='OPEN',
      XB=-17.685,-0.285,22.907,22.907,9.027,31.627, /
&VENT ID='Dom bc vert ext_6', SURF_ID='OPEN',
      XB=-5.085,-5.085,-22.693,-19.693,9.027,31.627, /
&VENT ID='Dom bc vert ext_7', SURF_ID='OPEN',
      XB=-5.085,6.915,-22.693,-22.693,9.027,31.627, /
&VENT ID='Dom bc vert ext_8', SURF_ID='OPEN',
      XB=-0.285,-0.285,19.307,22.907,9.027,31.627, /
&VENT ID='Dom bc vert ext_9', SURF_ID='OPEN',
      XB=-0.285,18.315,19.307,19.307,9.027,31.627, /
&VENT ID='Dom bc vert ext_10', SURF_ID='OPEN',
      XB=6.915,6.915,-22.693,-22.693,9.027,31.627, /
&VENT ID='Dom bc vert ext_11', SURF_ID='OPEN',
      XB=6.915,6.915,-22.693,-20.293,9.027,31.627, /
&VENT ID='Dom bc vert ext_12', SURF_ID='OPEN',
      XB=6.915,19.515,-20.293,-20.293,9.027,31.627, /
&VENT ID='Dom bc vert ext_13', SURF_ID='OPEN',
      XB=18.315,18.315,4.907,19.307,9.027,31.627, /
&VENT ID='Dom bc vert ext_14', SURF_ID='OPEN',
      XB=18.315,21.915,4.907,4.907,9.027,31.627, /
&VENT ID='Dom bc vert ext_15', SURF_ID='OPEN',
      XB=19.515,19.515,-20.293,-5.893,9.027,31.627, /
&VENT ID='Dom bc vert ext_16', SURF_ID='OPEN',
      XB=19.515,21.915,-5.893,-5.893,9.027,31.627, /
&VENT ID='Dom bc vert ext_17', SURF_ID='OPEN',
      XB=21.915,21.915,-5.893,4.907,9.027,31.627, /
! F-1 glasspane.000, from bounding box, in 0.001 s
&OBST ID='F-1 glasspane.000', SURF_ID='glass',
      XB=-17.047,-17.047,7.391,8.591,11.566,12.766, /
! F-1 glasspane.001, from bounding box, in 0.001 s
&OBST ID='F-1 glasspane.001', SURF_ID='glass',
      XB=-17.996,-17.996,-2.606,-1.406,11.566,12.766, /
! F-1 glasspane.002, from bounding box, in 0.000 s
&OBST ID='F-1 glasspane.002', SURF_ID='glass',
      XB=-17.996,-17.996,-7.133,-5.933,11.566,12.766, /
! F-1 glasspane.003, from bounding box, in 0.000 s
&OBST ID='F-1 glasspane.003', SURF_ID='glass',
      XB=-16.679,-16.679,-14.226,-13.026,11.566,12.766, /
! F-1 glasspane.004, from bounding box, in 0.000 s
&OBST ID='F-1 glasspane.004', SURF_ID='glass',
      XB=-0.953,0.247,-7.759,-6.559,12.524,12.524, /
! F-1 glasspane.005, from bounding box, in 0.000 s
&OBST ID='F-1 glasspane.005', SURF_ID='glass',
      XB=1.137,2.737,-7.759,-6.559,12.524,12.524, /
! F-1 glasspane.006, from bounding box, in 0.001 s
&OBST ID='F-1 glasspane.006', SURF_ID='glass',
      XB=3.883,5.483,-7.759,-6.559,12.524,12.524, /
! F-1 glasspane.007, from bounding box, in 0.001 s
&OBST ID='F-1 glasspane.007', SURF_ID='glass',
      XB=6.208,7.808,-7.759,-6.559,12.524,12.524, /
! F-1 glasspane.009, from bounding box, in 0.001 s
&OBST ID='F-1 glasspane.009', SURF_ID='glass',
      XB=-8.956,-7.356,18.945,18.945,11.566,12.766, /
! F-1 ground, from voxelization (183 voxels, voxel size is 0.300), in 3.582 s
&OBST ID='F-1 ground_0', SURF_ID='ground', SAWTOOTH=.FALSE.,
      XB=-17.051,-16.749,-14.351,-12.849,9.026,11.128, /
&OBST ID='F-1 ground_1', SURF_ID='ground', SAWTOOTH=.FALSE.,
      XB=-12.551,-11.649,20.449,20.751,9.026,12.028, /
&OBST ID='F-1 ground_2', SURF_ID='ground', SAWTOOTH=.FALSE.,
      XB=-22.151,-2.349,-19.451,-19.149,9.026,12.628, /
&OBST ID='F-1 ground_3', SURF_ID='ground', SAWTOOTH=.FALSE.,
      XB=5.149,22.851,-19.151,-18.849,9.026,12.628, /
&OBST ID='F-1 ground_4', SURF_ID='ground', SAWTOOTH=.FALSE.,
      XB=-18.251,-17.949,-14.351,-12.549,9.026,12.028, /
&OBST ID='F-1 ground_5', SURF_ID='ground', SAWTOOTH=.FALSE.,
      XB=-18.551,-18.249,-5.651,-5.349,9.026,11.728, /
&OBST ID='F-1 ground_6', SURF_ID='ground', SAWTOOTH=.FALSE.,
      XB=0.649,22.851,15.949,16.251,9.026,12.628, /
&OBST ID='F-1 ground_7', SURF_ID='ground', SAWTOOTH=.FALSE.,
      XB=-12.551,-11.049,19.849,20.151,9.026,12.028, /
&OBST ID='F-1 ground_8', SURF_ID='ground', SAWTOOTH=.FALSE.,
      XB=-5.951,-5.649,17.749,18.051,12.026,12.628, /
&OBST ID='F-1 ground_9', SURF_ID='ground', SAWTOOTH=.FALSE.,
      XB=-17.651,-16.749,5.149,5.451,9.026,11.428, /
&OBST ID='F-1 ground_10', SURF_ID='ground', SAWTOOTH=.FALSE.,
      XB=-17.651,-17.349,-2.651,-1.149,9.026,10.828, /
&OBST ID='F-1 ground_11', SURF_ID='ground', SAWTOOTH=.FALSE.,
      XB=-6.251,-5.949,19.249,19.551,11.126,12.628, /
&OBST ID='F-1 ground_12', SURF_ID='ground', SAWTOOTH=.FALSE.,
      XB=-19.151,-17.649,0.649,2.151,9.026,12.928, /
&OBST ID='F-1 ground_13', SURF_ID='ground', SAWTOOTH=.FALSE.,
      XB=-19.751,-17.649,-8.051,-7.749,9.026,12.328, /
&OBST ID='F-1 ground_14', SURF_ID='ground', SAWTOOTH=.FALSE.,
      XB=-7.451,-7.149,20.749,21.051,9.026,12.328, /
&OBST ID='F-1 ground_15', SURF_ID='ground', SAWTOOTH=.FALSE.,
      XB=-18.551,-18.249,6.349,8.751,9.026,12.328, /
&OBST ID='F-1 ground_16', SURF_ID='ground', SAWTOOTH=.FALSE.,
      XB=-18.551,-18.249,-2.951,-1.149,9.026,11.728, /
&OBST ID='F-1 ground_17', SURF_ID='ground', SAWTOOTH=.FALSE.,
      XB=-19.151,-18.849,-7.451,-5.649,9.026,12.028, /
&OBST ID='F-1 ground_18', SURF_ID='ground', SAWTOOTH=.FALSE.,
      XB=-6.551,-5.949,19.549,19.851,10.826,12.628, /
&OBST ID='F-1 ground_19', SURF_ID='ground', SAWTOOTH=.FALSE.,
      XB=-22.151,-19.749,-7.451,-5.349,9.026,12.628, /
! ... 326 like lines cut
! F-1 staircase.000, from voxelization (23 voxels, voxel size is 0.300), in 0.091 s
&OBST ID='F-1 staircase.000_0', SURF_ID='stair',
      XB=-8.346,-6.844,-4.313,-4.011,8.979,12.281, /
&OBST ID='F-1 staircase.000_1', SURF_ID='stair',
      XB=-6.846,-5.344,-4.313,-4.011,8.979,12.581, /
&OBST ID='F-1 staircase.000_2', SURF_ID='stair',
      XB=-8.346,-7.744,-5.513,-5.211,8.979,11.081, /
&OBST ID='F-1 staircase.000_3', SURF_ID='stair',
      XB=-8.346,-7.144,-4.913,-4.611,8.979,11.681, /
&OBST ID='F-1 staircase.000_4', SURF_ID='stair',
      XB=-8.046,-5.644,-6.113,-5.811,8.979,10.781, /
&OBST ID='F-1 staircase.000_5', SURF_ID='stair',
      XB=-8.046,-5.644,-5.813,-5.511,8.979,11.081, /
&OBST ID='F-1 staircase.000_6', SURF_ID='stair',
      XB=-7.446,-5.344,-5.213,-4.911,8.979,11.681, /
&OBST ID='F-1 staircase.000_7', SURF_ID='stair',
      XB=-6.846,-5.344,-4.613,-4.311,8.979,12.281, /
&OBST ID='F-1 staircase.000_8', SURF_ID='stair',
      XB=-8.646,-5.644,-7.313,-7.011,8.979,9.581, /
&OBST ID='F-1 staircase.000_9', SURF_ID='stair',
      XB=-8.646,-5.644,-7.613,-7.311,8.979,9.281, /
&OBST ID='F-1 staircase.000_10', SURF_ID='stair',
      XB=-8.346,-5.644,-6.413,-6.111,8.979,10.481, /
&OBST ID='F-1 staircase.000_11', SURF_ID='stair',
      XB=-7.146,-5.344,-4.913,-4.611,8.979,11.981, /
&OBST ID='F-1 staircase.000_12', SURF_ID='stair',
      XB=-8.646,-8.344,-6.413,-6.111,8.979,10.181, /
&OBST ID='F-1 staircase.000_13', SURF_ID='stair',
      XB=-8.346,-6.844,-4.613,-4.311,8.979,11.981, /
&OBST ID='F-1 staircase.000_14', SURF_ID='stair',
      XB=-8.346,-8.044,-6.113,-5.811,8.979,10.481, /
&OBST ID='F-1 staircase.000_15', SURF_ID='stair',
      XB=-8.646,-5.644,-7.013,-6.711,8.979,9.881, /
&OBST ID='F-1 staircase.000_16', SURF_ID='stair',
      XB=-7.746,-5.644,-5.513,-5.211,8.979,11.381, /
&OBST ID='F-1 staircase.000_17', SURF_ID='stair',
      XB=-8.346,-8.044,-5.813,-5.511,8.979,10.781, /
&OBST ID='F-1 staircase.000_18', SURF_ID='stair',
      XB=-6.546,-5.344,-4.013,-3.711,8.979,12.881, /
&OBST ID='F-1 staircase.000_19', SURF_ID='stair',
      XB=-8.346,-6.544,-3.713,-3.411,8.979,12.881, /
&OBST ID='F-1 staircase.000_20', SURF_ID='stair',
      XB=-8.346,-7.444,-5.213,-4.911,8.979,11.381, /
&OBST ID='F-1 staircase.000_21', SURF_ID='stair',
      XB=-8.346,-6.544,-4.013,-3.711,8.979,12.581, /
&OBST ID='F-1 staircase.000_22', SURF_ID='stair',
      XB=-8.646,-5.644,-6.713,-6.411,8.979,10.181, /
! F-1 staircase.001, from voxelization (29 voxels, voxel size is 0.300), in 0.073 s
&OBST ID='F-1 staircase.001_0', SURF_ID='stair',
      XB=-3.760,-3.458,7.337,7.639,9.049,9.651, /
&OBST ID='F-1 staircase.001_1', SURF_ID='stair',
      XB=-3.460,-3.158,5.837,7.039,9.049,10.251, /
&OBST ID='F-1 staircase.001_2', SURF_ID='stair',
      XB=-0.760,-0.458,6.437,7.339,9.049,12.651, /
&OBST ID='F-1 staircase.001_3', SURF_ID='stair',
      XB=-4.060,-3.758,5.837,7.339,9.049,9.651, /
&OBST ID='F-1 staircase.001_4', SURF_ID='stair',
      XB=-3.160,-2.858,7.037,7.639,9.049,10.251, /
&OBST ID='F-1 staircase.001_5', SURF_ID='stair',
      XB=-0.760,-0.458,5.237,6.439,9.049,12.951, /
&OBST ID='F-1 staircase.001_6', SURF_ID='stair',
      XB=-4.060,-3.758,7.337,7.939,9.049,9.351, /
&OBST ID='F-1 staircase.001_7', SURF_ID='stair',
      XB=-2.560,-2.258,7.037,7.639,9.049,10.851, /
&OBST ID='F-1 staircase.001_8', SURF_ID='stair',
      XB=-2.260,-1.958,5.537,6.739,9.049,11.451, /
&OBST ID='F-1 staircase.001_9', SURF_ID='stair',
      XB=-1.060,-0.758,6.437,7.339,9.049,12.351, /
&OBST ID='F-1 staircase.001_10', SURF_ID='stair',
      XB=-3.760,-3.158,7.037,7.339,9.049,9.951, /
&OBST ID='F-1 staircase.001_11', SURF_ID='stair',
      XB=-1.660,-1.358,6.737,7.339,9.049,11.751, /
&OBST ID='F-1 staircase.001_12', SURF_ID='stair',
      XB=-2.860,-2.258,6.737,7.039,9.049,10.851, /
&OBST ID='F-1 staircase.001_13', SURF_ID='stair',
      XB=-1.360,-1.058,6.737,7.339,9.049,12.051, /
&OBST ID='F-1 staircase.001_14', SURF_ID='stair',
      XB=-3.460,-3.158,7.337,7.639,9.049,9.951, /
&OBST ID='F-1 staircase.001_15', SURF_ID='stair',
      XB=-2.260,-1.958,6.737,7.639,9.049,11.151, /
&OBST ID='F-1 staircase.001_16', SURF_ID='stair',
      XB=-4.360,-4.058,5.837,7.339,9.049,9.351, /
&OBST ID='F-1 staircase.001_17', SURF_ID='stair',
      XB=-2.860,-2.558,7.037,7.639,9.049,10.551, /
&OBST ID='F-1 staircase.001_18', SURF_ID='stair',
      XB=-3.160,-2.858,5.537,7.039,9.049,10.551, /
&OBST ID='F-1 staircase.001_19', SURF_ID='stair',
      XB=-1.960,-1.658,6.737,7.639,9.049,11.451, /
! ... 18 like lines cut
! F-1 walls, from voxelization (2130 voxels, voxel size is 0.200), in 11.478 s
&OBST ID='F-1 walls_0', SURF_ID='wall.001', SAWTOOTH=.FALSE.,
      XB=-15.792,-15.590,17.181,17.383,8.930,11.732, /
&OBST ID='F-1 walls_1', SURF_ID='wall.001', SAWTOOTH=.FALSE.,
      XB=-8.992,-8.790,20.581,20.783,9.130,12.532, /
&OBST ID='F-1 walls_2', SURF_ID='wall.001', SAWTOOTH=.FALSE.,
      XB=9.208,9.410,17.781,17.983,8.930,9.732, /
&OBST ID='F-1 walls_3', SURF_ID='wall.001', SAWTOOTH=.FALSE.,
      XB=-17.792,-17.590,-10.819,-10.617,8.930,11.932, /
&OBST ID='F-1 walls_4', SURF_ID='wall.001', SAWTOOTH=.FALSE.,
      XB=-0.792,0.210,-8.219,-7.417,8.930,10.532, /
&OBST ID='F-1 walls_5', SURF_ID='wall.001', SAWTOOTH=.FALSE.,
      XB=-7.992,-7.590,-19.019,-18.817,9.130,12.732, /
&OBST ID='F-1 walls_6', SURF_ID='wall.001', SAWTOOTH=.FALSE.,
      XB=12.008,12.210,-18.819,-18.617,8.930,10.532, /
&OBST ID='F-1 walls_7', SURF_ID='wall.001', SAWTOOTH=.FALSE.,
      XB=-13.992,-13.590,-5.019,-4.817,11.530,12.932, /
&OBST ID='F-1 walls_8', SURF_ID='wall.001', SAWTOOTH=.FALSE.,
      XB=-16.392,-16.190,-18.019,-17.617,8.930,11.332, /
&OBST ID='F-1 walls_9', SURF_ID='wall.001', SAWTOOTH=.FALSE.,
      XB=-17.992,-17.790,-9.019,-8.817,8.930,12.532, /
&OBST ID='F-1 walls_10', SURF_ID='wall.001', SAWTOOTH=.FALSE.,
      XB=18.408,18.610,4.781,4.983,8.930,11.932, /
&OBST ID='F-1 walls_11', SURF_ID='wall.001', SAWTOOTH=.FALSE.,
      XB=-7.792,-7.590,-8.619,-8.417,11.530,12.932, /
&OBST ID='F-1 walls_12', SURF_ID='wall.001', SAWTOOTH=.FALSE.,
      XB=14.408,15.010,-18.619,-18.417,8.930,9.932, /
&OBST ID='F-1 walls_13', SURF_ID='wall.001', SAWTOOTH=.FALSE.,
      XB=-6.992,-5.990,-17.819,-17.617,9.130,12.932, /
&OBST ID='F-1 walls_14', SURF_ID='wall.001', SAWTOOTH=.FALSE.,
      XB=17.208,17.410,10.781,10.983,8.930,12.332, /
&OBST ID='F-1 walls_15', SURF_ID='wall.001', SAWTOOTH=.FALSE.,
      XB=6.208,6.410,18.181,18.383,8.930,9.132, /
&OBST ID='F-1 walls_16', SURF_ID='wall.001', SAWTOOTH=.FALSE.,
      XB=-16.992,-16.790,-17.419,-17.217,8.930,9.532, /
&OBST ID='F-1 walls_17', SURF_ID='wall.001', SAWTOOTH=.FALSE.,
      XB=-8.392,-3.190,5.781,5.983,8.930,12.932, /
&OBST ID='F-1 walls_18', SURF_ID='wall.001', SAWTOOTH=.FALSE.,
      XB=21.608,21.810,-3.419,-3.017,9.130,12.932, /
&OBST ID='F-1 walls_19', SURF_ID='wall.001', SAWTOOTH=.FALSE.,
      XB=18.808,19.210,-15.819,-15.617,9.130,12.932, /
! ... 4220 like lines cut
! F0 glasspane.000, from bounding box, in 0.001 s
&OBST ID='F0 glasspane.000', SURF_ID='glass',
      XB=-8.587,-7.087,19.135,19.135,14.135,15.635, /
! F0 glasspane.001, from bounding box, in 0.001 s
&OBST ID='F0 glasspane.001', SURF_ID='glass',
      XB=-2.020,-0.520,17.380,17.380,14.135,15.635, /
! F0 glasspane.002, from bounding box, in 0.001 s
&OBST ID='F0 glasspane.002', SURF_ID='glass',
      XB=2.280,3.780,17.380,17.380,14.213,15.713, /
! F0 glasspane.003, from bounding box, in 0.001 s
&OBST ID='F0 glasspane.003', SURF_ID='glass',
      XB=16.114,16.114,11.275,12.775,14.213,15.713, /
! F0 glasspane.004, from bounding box, in 0.000 s
&OBST ID='F0 glasspane.004', SURF_ID='glass',
      XB=17.850,17.850,2.371,3.871,14.213,15.713, /
! F0 glasspane.005, from bounding box, in 0.001 s
&OBST ID='F0 glasspane.005', SURF_ID='glass',
      XB=21.161,21.161,-0.593,0.907,14.213,15.713, /
! F0 glasspane.006, from bounding box, in 0.000 s
&OBST ID='F0 glasspane.006', SURF_ID='glass',
      XB=21.161,21.161,-3.895,-2.395,14.213,15.713, /
! F0 glasspane.007, from bounding box, in 0.001 s
&OBST ID='F0 glasspane.007', SURF_ID='glass',
      XB=18.467,18.467,-6.174,-4.674,14.213,15.713, /
! F0 glasspane.008, from bounding box, in 0.001 s
&OBST ID='F0 glasspane.008', SURF_ID='glass',
      XB=18.467,18.467,-12.657,-11.157,14.213,15.713, /
! F0 glasspane.009, from bounding box, in 0.001 s
&OBST ID='F0 glasspane.009', SURF_ID='glass',
      XB=13.223,14.723,-17.286,-17.286,14.213,15.713, /
! F0 glasspane.010, from bounding box, in 0.001 s
&OBST ID='F0 glasspane.010', SURF_ID='glass',
      XB=6.619,8.119,-18.429,-18.429,14.213,15.713, /
! F0 glasspane.011, from bounding box, in 0.001 s
&OBST ID='F0 glasspane.011', SURF_ID='glass',
      XB=-4.759,-3.259,-18.429,-18.429,14.213,15.713, /
! F0 glasspane.012, from bounding box, in 0.001 s
&OBST ID='F0 glasspane.012', SURF_ID='glass',
      XB=-11.762,-10.262,-17.912,-17.912,14.213,15.713, /
! F0 glasspane.013, from bounding box, in 0.001 s
&OBST ID='F0 glasspane.013', SURF_ID='glass',
      XB=-15.792,-15.792,-14.033,-12.533,14.213,15.713, /
! F0 glasspane.014, from bounding box, in 0.001 s
&OBST ID='F0 glasspane.014', SURF_ID='glass',
      XB=-17.030,-17.030,-7.895,-6.395,14.213,15.713, /
! F0 glasspane.015, from bounding box, in 0.000 s
&OBST ID='F0 glasspane.015', SURF_ID='glass',
      XB=-17.612,-17.612,-2.687,-1.187,14.213,15.713, /
! F0 glasspane.016, from bounding box, in 0.001 s
&OBST ID='F0 glasspane.016', SURF_ID='glass',
      XB=-16.884,-16.884,6.879,8.379,14.213,15.713, /
! F0 glasspane.017, from bounding box, in 0.001 s
&OBST ID='F0 glasspane.017', SURF_ID='glass',
      XB=6.578,8.078,-8.957,-8.957,14.213,15.713, /
! F0 glasspane.018, from bounding box, in 0.001 s
&OBST ID='F0 glasspane.018', SURF_ID='glass',
      XB=4.098,5.598,-8.957,-8.957,14.213,15.713, /
! F0 glasspane.019, from bounding box, in 0.001 s
&OBST ID='F0 glasspane.019', SURF_ID='glass',
      XB=1.466,2.966,-8.957,-8.957,14.213,15.713, /
! ... 21 like lines cut
! F0 staircase, from voxelization (64 voxels, voxel size is 0.300), in 0.101 s
&OBST ID='F0 staircase_0', SURF_ID='stair',
      XB=-15.293,-13.191,5.988,6.890,14.722,15.024, /
&OBST ID='F0 staircase_1', SURF_ID='stair',
      XB=-9.893,-9.591,8.388,8.690,16.222,16.824, /
&OBST ID='F0 staircase_2', SURF_ID='stair',
      XB=-9.593,-9.291,6.888,7.190,16.522,17.124, /
&OBST ID='F0 staircase_3', SURF_ID='stair',
      XB=-11.093,-10.791,5.988,6.290,13.222,13.824, /
&OBST ID='F0 staircase_4', SURF_ID='stair',
      XB=-12.593,-12.291,5.688,6.290,14.122,14.424, /
&OBST ID='F0 staircase_5', SURF_ID='stair',
      XB=-14.993,-12.891,7.788,8.390,14.722,15.024, /
&OBST ID='F0 staircase_6', SURF_ID='stair',
      XB=-14.993,-13.191,6.888,7.790,14.722,15.024, /
&OBST ID='F0 staircase_7', SURF_ID='stair',
      XB=-10.193,-9.891,8.088,8.690,16.222,16.524, /
&OBST ID='F0 staircase_8', SURF_ID='stair',
      XB=-11.693,-11.091,5.088,5.690,13.522,13.824, /
&OBST ID='F0 staircase_9', SURF_ID='stair',
      XB=-9.593,-9.291,8.388,8.690,16.522,16.824, /
&OBST ID='F0 staircase_10', SURF_ID='stair',
      XB=-11.993,-11.391,8.388,9.290,15.322,15.624, /
&OBST ID='F0 staircase_11', SURF_ID='stair',
      XB=-11.393,-10.791,6.288,6.890,13.522,13.824, /
&OBST ID='F0 staircase_12', SURF_ID='stair',
      XB=-12.893,-12.591,7.188,7.490,14.422,14.724, /
&OBST ID='F0 staircase_13', SURF_ID='stair',
      XB=-11.993,-11.691,5.688,6.290,13.822,14.124, /
&OBST ID='F0 staircase_14', SURF_ID='stair',
      XB=-10.793,-10.491,4.788,5.090,13.222,13.524, /
&OBST ID='F0 staircase_15', SURF_ID='stair',
      XB=-11.093,-10.791,8.088,8.390,15.622,16.224, /
&OBST ID='F0 staircase_16', SURF_ID='stair',
      XB=-12.293,-11.991,9.288,9.590,15.022,15.324, /
&OBST ID='F0 staircase_17', SURF_ID='stair',
      XB=-12.893,-12.591,5.688,5.990,14.122,14.724, /
&OBST ID='F0 staircase_18', SURF_ID='stair',
      XB=-10.193,-9.891,5.988,6.290,12.922,13.224, /
&OBST ID='F0 staircase_19', SURF_ID='stair',
      XB=-9.293,-8.991,8.388,8.690,16.522,17.124, /
! ... 88 like lines cut
! F0 vault, from voxelization (501 voxels, voxel size is 0.200), in 7.332 s
&OBST ID='F0 vault_0', SURF_ID='wall.001', SAWTOOTH=.FALSE.,
      XB=11.652,12.054,-18.281,-18.079,15.966,16.368, /
&OBST ID='F0 vault_1', SURF_ID='wall.001', SAWTOOTH=.FALSE.,
      XB=5.852,17.254,8.319,8.521,15.966,16.968, /
&OBST ID='F0 vault_2', SURF_ID='wall.001', SAWTOOTH=.FALSE.,
      XB=-2.548,2.054,6.319,6.521,16.766,16.968, /
&OBST ID='F0 vault_3', SURF_ID='wall.001', SAWTOOTH=.FALSE.,
      XB=8.052,8.454,17.319,17.521,15.966,16.368, /
&OBST ID='F0 vault_4', SURF_ID='wall.001', SAWTOOTH=.FALSE.,
      XB=-15.948,15.054,-17.481,-17.279,15.966,16.968, /
&OBST ID='F0 vault_5', SURF_ID='wall.001', SAWTOOTH=.FALSE.,
      XB=17.852,18.054,5.519,5.721,15.966,16.568, /
&OBST ID='F0 vault_6', SURF_ID='wall.001', SAWTOOTH=.FALSE.,
      XB=11.052,19.054,-5.081,-4.879,15.966,16.968, /
&OBST ID='F0 vault_7', SURF_ID='wall.001', SAWTOOTH=.FALSE.,
      XB=-1.148,6.254,-19.281,-19.079,15.966,16.968, /
&OBST ID='F0 vault_8', SURF_ID='wall.001', SAWTOOTH=.FALSE.,
      XB=-14.148,-13.546,22.519,22.721,15.966,16.968, /
&OBST ID='F0 vault_9', SURF_ID='wall.001', SAWTOOTH=.FALSE.,
      XB=18.852,19.054,-5.881,-5.479,15.966,16.568, /
&OBST ID='F0 vault_10', SURF_ID='wall.001', SAWTOOTH=.FALSE.,
      XB=-9.148,-8.546,-18.681,-18.479,15.966,16.568, /
&OBST ID='F0 vault_11', SURF_ID='wall.001', SAWTOOTH=.FALSE.,
      XB=-9.748,-1.746,7.319,7.521,15.966,16.968, /
&OBST ID='F0 vault_12', SURF_ID='wall.001', SAWTOOTH=.FALSE.,
      XB=-8.548,-8.146,19.119,19.321,15.966,16.568, /
&OBST ID='F0 vault_13', SURF_ID='wall.001', SAWTOOTH=.FALSE.,
      XB=11.652,12.054,16.919,17.121,15.966,16.368, /
&OBST ID='F0 vault_14', SURF_ID='wall.001', SAWTOOTH=.FALSE.,
      XB=-2.548,-1.146,-19.081,-18.879,15.966,16.168, /
&OBST ID='F0 vault_15', SURF_ID='wall.001', SAWTOOTH=.FALSE.,
      XB=21.252,21.454,-0.281,0.321,15.966,16.768, /
&OBST ID='F0 vault_16', SURF_ID='wall.001', SAWTOOTH=.FALSE.,
      XB=-3.348,-3.146,18.719,18.921,15.966,16.168, /
&OBST ID='F0 vault_17', SURF_ID='wall.001', SAWTOOTH=.FALSE.,
      XB=-1.748,-0.946,-7.081,-6.679,15.966,16.968, /
&OBST ID='F0 vault_18', SURF_ID='wall.001', SAWTOOTH=.FALSE.,
      XB=18.252,18.454,3.519,3.721,15.966,16.568, /
&OBST ID='F0 vault_19', SURF_ID='wall.001', SAWTOOTH=.FALSE.,
      XB=-15.948,-15.746,14.519,14.721,15.966,16.568, /
! ... 962 like lines cut
! F0 walls, from voxelization (1044 voxels, voxel size is 0.200), in 7.529 s
&OBST ID='F0 walls_0', SURF_ID='wall.001', SAWTOOTH=.FALSE.,
      XB=-10.112,-9.310,19.436,19.638,12.917,15.919, /
&OBST ID='F0 walls_1', SURF_ID='wall.001', SAWTOOTH=.FALSE.,
      XB=12.288,12.490,7.636,7.838,12.917,15.919, /
&OBST ID='F0 walls_2', SURF_ID='wall.001', SAWTOOTH=.FALSE.,
      XB=-18.512,-17.910,2.036,2.438,12.917,14.519, /
&OBST ID='F0 walls_3', SURF_ID='wall.001', SAWTOOTH=.FALSE.,
      XB=-6.712,-5.510,8.236,8.438,12.917,15.919, /
&OBST ID='F0 walls_4', SURF_ID='wall.001', SAWTOOTH=.FALSE.,
      XB=13.688,16.890,11.836,12.038,15.517,15.919, /
&OBST ID='F0 walls_5', SURF_ID='wall.001', SAWTOOTH=.FALSE.,
      XB=-16.712,-14.910,5.436,5.838,12.917,15.919, /
&OBST ID='F0 walls_6', SURF_ID='wall.001', SAWTOOTH=.FALSE.,
      XB=-16.912,-14.710,-12.564,-12.362,12.917,15.919, /
&OBST ID='F0 walls_7', SURF_ID='wall.001', SAWTOOTH=.FALSE.,
      XB=-20.512,-18.510,2.036,2.638,12.917,15.919, /
&OBST ID='F0 walls_8', SURF_ID='wall.001', SAWTOOTH=.FALSE.,
      XB=17.288,17.490,9.036,9.238,12.917,14.319, /
&OBST ID='F0 walls_9', SURF_ID='wall.001', SAWTOOTH=.FALSE.,
      XB=-9.312,-8.310,-8.364,-8.162,12.917,15.919, /
&OBST ID='F0 walls_10', SURF_ID='wall.001', SAWTOOTH=.FALSE.,
      XB=-7.712,-6.710,-16.364,-15.962,12.917,15.919, /
&OBST ID='F0 walls_11', SURF_ID='wall.001', SAWTOOTH=.FALSE.,
      XB=-19.912,-15.710,6.836,7.038,12.917,15.919, /
&OBST ID='F0 walls_12', SURF_ID='wall.001', SAWTOOTH=.FALSE.,
      XB=-17.112,-15.910,7.236,7.438,12.917,14.519, /
&OBST ID='F0 walls_13', SURF_ID='wall.001', SAWTOOTH=.FALSE.,
      XB=-2.112,-0.510,17.836,18.638,15.517,15.919, /
&OBST ID='F0 walls_14', SURF_ID='wall.001', SAWTOOTH=.FALSE.,
      XB=-20.112,-18.710,5.636,5.838,12.917,15.919, /
&OBST ID='F0 walls_15', SURF_ID='wall.001', SAWTOOTH=.FALSE.,
      XB=-5.912,-4.310,14.636,14.838,12.917,15.919, /
&OBST ID='F0 walls_16', SURF_ID='wall.001', SAWTOOTH=.FALSE.,
      XB=7.888,8.490,-8.964,-7.762,12.917,15.919, /
&OBST ID='F0 walls_17', SURF_ID='wall.001', SAWTOOTH=.FALSE.,
      XB=-11.512,-10.110,-16.364,-16.162,15.517,15.919, /
&OBST ID='F0 walls_18', SURF_ID='wall.001', SAWTOOTH=.FALSE.,
      XB=-10.112,-9.910,7.436,7.838,12.917,15.919, /
&OBST ID='F0 walls_19', SURF_ID='wall.001', SAWTOOTH=.FALSE.,
      XB=-4.712,-3.310,-0.364,0.038,15.517,15.919, /
! ... 2048 like lines cut
! F0 well, from voxelization (4 voxels, voxel size is 0.300), in 0.028 s
&OBST ID='F0 well_0', SURF_ID='stair', SAWTOOTH=.FALSE.,
      XB=7.162,8.064,-1.878,-1.576,13.049,13.951, /
&OBST ID='F0 well_1', SURF_ID='stair', SAWTOOTH=.FALSE.,
      XB=6.862,8.064,-1.578,-1.276,13.049,13.951, /
&OBST ID='F0 well_2', SURF_ID='stair', SAWTOOTH=.FALSE.,
      XB=7.162,8.064,-1.278,-0.976,13.049,13.951, /
&OBST ID='F0 well_3', SURF_ID='stair', SAWTOOTH=.FALSE.,
      XB=7.462,7.764,-2.178,-1.876,13.049,13.951, /
! F1 arches, from voxelization (45 voxels, voxel size is 0.300), in 0.111 s
&OBST ID='F1 arches_0', SURF_ID='wall.001', SAWTOOTH=.FALSE.,
      XB=9.666,10.568,-0.967,0.534,19.605,20.807, /
&OBST ID='F1 arches_1', SURF_ID='wall.001', SAWTOOTH=.FALSE.,
      XB=9.966,10.868,-7.868,-7.266,19.905,20.807, /
&OBST ID='F1 arches_2', SURF_ID='wall.001', SAWTOOTH=.FALSE.,
      XB=9.366,9.968,7.433,7.735,19.605,20.207, /
&OBST ID='F1 arches_3', SURF_ID='wall.001', SAWTOOTH=.FALSE.,
      XB=9.366,10.568,2.933,3.235,19.905,20.807, /
&OBST ID='F1 arches_4', SURF_ID='wall.001', SAWTOOTH=.FALSE.,
      XB=9.666,9.968,-7.568,-7.266,19.905,20.207, /
&OBST ID='F1 arches_5', SURF_ID='wall.001', SAWTOOTH=.FALSE.,
      XB=9.366,10.568,4.433,5.035,19.905,20.807, /
&OBST ID='F1 arches_6', SURF_ID='wall.001', SAWTOOTH=.FALSE.,
      XB=9.666,10.568,1.133,1.435,20.205,21.107, /
&OBST ID='F1 arches_7', SURF_ID='wall.001', SAWTOOTH=.FALSE.,
      XB=9.366,10.568,6.533,6.834,20.205,20.807, /
&OBST ID='F1 arches_8', SURF_ID='wall.001', SAWTOOTH=.FALSE.,
      XB=9.966,10.268,-8.168,-7.866,19.605,20.507, /
&OBST ID='F1 arches_9', SURF_ID='wall.001', SAWTOOTH=.FALSE.,
      XB=10.566,10.868,-6.068,-5.766,20.505,21.107, /
&OBST ID='F1 arches_10', SURF_ID='wall.001', SAWTOOTH=.FALSE.,
      XB=9.666,10.868,-6.668,-6.066,20.505,21.107, /
&OBST ID='F1 arches_11', SURF_ID='wall.001', SAWTOOTH=.FALSE.,
      XB=10.566,10.868,-1.867,-1.566,20.205,20.507, /
&OBST ID='F1 arches_12', SURF_ID='wall.001', SAWTOOTH=.FALSE.,
      XB=9.366,10.568,2.332,2.635,20.205,21.107, /
&OBST ID='F1 arches_13', SURF_ID='wall.001', SAWTOOTH=.FALSE.,
      XB=10.266,10.868,-6.968,-6.666,20.205,21.107, /
&OBST ID='F1 arches_14', SURF_ID='wall.001', SAWTOOTH=.FALSE.,
      XB=9.366,10.568,2.633,2.935,20.205,20.807, /
&OBST ID='F1 arches_15', SURF_ID='wall.001', SAWTOOTH=.FALSE.,
      XB=9.666,10.568,-1.867,-1.566,20.205,21.107, /
&OBST ID='F1 arches_16', SURF_ID='wall.001', SAWTOOTH=.FALSE.,
      XB=9.666,10.268,-6.968,-6.666,20.505,21.107, /
&OBST ID='F1 arches_17', SURF_ID='wall.001', SAWTOOTH=.FALSE.,
      XB=9.666,10.868,-4.867,-3.666,19.605,20.807, /
&OBST ID='F1 arches_18', SURF_ID='wall.001', SAWTOOTH=.FALSE.,
      XB=9.366,10.568,5.633,6.235,20.505,21.107, /
&OBST ID='F1 arches_19', SURF_ID='wall.001', SAWTOOTH=.FALSE.,
      XB=9.666,10.868,-5.468,-4.865,19.905,20.807, /
! ... 50 like lines cut
! F1 glasspane.000, from bounding box, in 0.001 s
&OBST ID='F1 glasspane.000', SURF_ID='glass',
      XB=11.405,11.405,-7.027,-5.527,18.127,19.627, /
! F1 glasspane.001, from bounding box, in 0.001 s
&OBST ID='F1 glasspane.001', SURF_ID='glass',
      XB=11.172,11.172,-3.085,-1.585,18.127,19.627, /
! F1 glasspane.002, from bounding box, in 0.001 s
&OBST ID='F1 glasspane.002', SURF_ID='glass',
      XB=11.078,11.078,1.199,2.699,18.127,19.627, /
! F1 glasspane.003, from bounding box, in 0.001 s
&OBST ID='F1 glasspane.003', SURF_ID='glass',
      XB=10.889,10.889,5.342,6.842,18.127,19.627, /
! F1 glasspane.004, from bounding box, in 0.001 s
&OBST ID='F1 glasspane.004', SURF_ID='glass',
      XB=16.997,16.997,2.386,3.886,18.127,19.627, /
! F1 glasspane.005, from bounding box, in 0.001 s
&OBST ID='F1 glasspane.005', SURF_ID='glass',
      XB=17.953,17.953,-6.257,-4.757,18.127,19.627, /
! F1 glasspane.006, from bounding box, in 0.001 s
&OBST ID='F1 glasspane.006', SURF_ID='glass',
      XB=20.839,20.839,-3.964,-2.464,18.127,19.627, /
! F1 glasspane.007, from bounding box, in 0.001 s
&OBST ID='F1 glasspane.007', SURF_ID='glass',
      XB=20.839,20.839,-0.662,0.838,18.127,19.627, /
! F1 glasspane.008, from bounding box, in 0.001 s
&OBST ID='F1 glasspane.008', SURF_ID='glass',
      XB=15.685,15.685,11.226,12.726,18.127,19.627, /
! F1 glasspane.009, from bounding box, in 0.001 s
&OBST ID='F1 glasspane.009', SURF_ID='glass',
      XB=17.686,17.686,-12.614,-11.114,18.127,19.627, /
! F1 glasspane.010, from bounding box, in 0.001 s
&OBST ID='F1 glasspane.010', SURF_ID='glass',
      XB=13.378,14.878,-16.672,-16.672,18.127,19.627, /
! F1 glasspane.011, from bounding box, in 0.001 s
&OBST ID='F1 glasspane.011', SURF_ID='glass',
      XB=6.370,7.870,-18.215,-18.215,18.127,19.627, /
! F1 glasspane.012, from bounding box, in 0.001 s
&OBST ID='F1 glasspane.012', SURF_ID='glass',
      XB=0.784,2.284,-21.021,-21.021,18.127,19.627, /
! F1 glasspane.013, from bounding box, in 0.001 s
&OBST ID='F1 glasspane.013', SURF_ID='glass',
      XB=-4.562,-3.062,-18.230,-18.230,18.127,19.627, /
! F1 glasspane.014, from bounding box, in 0.001 s
&OBST ID='F1 glasspane.014', SURF_ID='glass',
      XB=-6.468,-4.968,-18.230,-18.230,18.127,19.627, /
! F1 glasspane.015, from bounding box, in 0.001 s
&OBST ID='F1 glasspane.015', SURF_ID='glass',
      XB=-11.928,-10.428,-17.698,-17.698,18.127,19.627, /
! F1 glasspane.016, from bounding box, in 0.001 s
&OBST ID='F1 glasspane.016', SURF_ID='glass',
      XB=-15.790,-15.790,-14.325,-12.825,18.127,19.627, /
! F1 glasspane.017, from bounding box, in 0.001 s
&OBST ID='F1 glasspane.017', SURF_ID='glass',
      XB=-17.203,-17.203,-7.872,-6.372,18.127,19.627, /
! F1 glasspane.018, from bounding box, in 0.001 s
&OBST ID='F1 glasspane.018', SURF_ID='glass',
      XB=-16.474,-16.474,-0.822,0.678,18.127,19.627, /
! F1 glasspane.019, from bounding box, in 0.001 s
&OBST ID='F1 glasspane.019', SURF_ID='glass',
      XB=-15.638,-15.638,11.423,12.923,18.127,19.627, /
! ... 30 like lines cut
! F1 staircase, from voxelization (66 voxels, voxel size is 0.300), in 0.106 s
&OBST ID='F1 staircase_0', SURF_ID='stair',
      XB=-10.790,-10.188,5.989,6.891,17.222,17.524, /
&OBST ID='F1 staircase_1', SURF_ID='stair',
      XB=-13.190,-12.588,5.989,7.191,18.422,18.724, /
&OBST ID='F1 staircase_2', SURF_ID='stair',
      XB=-10.490,-10.188,5.689,5.991,16.922,17.524, /
&OBST ID='F1 staircase_3', SURF_ID='stair',
      XB=-12.890,-12.288,7.789,8.091,19.022,19.324, /
&OBST ID='F1 staircase_4', SURF_ID='stair',
      XB=-12.590,-11.988,8.389,9.591,19.022,19.324, /
&OBST ID='F1 staircase_5', SURF_ID='stair',
      XB=-13.490,-12.888,5.389,5.691,18.422,18.724, /
&OBST ID='F1 staircase_6', SURF_ID='stair',
      XB=-14.990,-13.188,7.489,7.791,18.722,19.024, /
&OBST ID='F1 staircase_7', SURF_ID='stair',
      XB=-11.990,-11.688,5.689,5.991,17.822,18.124, /
&OBST ID='F1 staircase_8', SURF_ID='stair',
      XB=-11.690,-11.388,5.689,5.991,17.522,18.124, /
&OBST ID='F1 staircase_9', SURF_ID='stair',
      XB=-10.190,-9.888,5.689,5.991,16.922,17.224, /
&OBST ID='F1 staircase_10', SURF_ID='stair',
      XB=-11.690,-11.088,5.089,5.691,17.522,17.824, /
&OBST ID='F1 staircase_11', SURF_ID='stair',
      XB=-11.990,-11.388,8.389,9.291,19.322,19.624, /
&OBST ID='F1 staircase_12', SURF_ID='stair',
      XB=-10.490,-10.188,8.089,8.391,19.922,20.524, /
&OBST ID='F1 staircase_13', SURF_ID='stair',
      XB=-12.890,-12.588,7.189,7.491,18.422,18.724, /
&OBST ID='F1 staircase_14', SURF_ID='stair',
      XB=-10.790,-10.488,4.789,5.091,17.222,17.524, /
&OBST ID='F1 staircase_15', SURF_ID='stair',
      XB=-11.090,-10.788,8.089,8.391,19.622,20.224, /
&OBST ID='F1 staircase_16', SURF_ID='stair',
      XB=-11.990,-11.388,5.989,7.191,17.822,18.124, /
&OBST ID='F1 staircase_17', SURF_ID='stair',
      XB=-12.890,-12.588,5.689,5.991,18.122,18.724, /
&OBST ID='F1 staircase_18', SURF_ID='stair',
      XB=-13.790,-13.488,5.389,5.691,18.722,19.024, /
&OBST ID='F1 staircase_19', SURF_ID='stair',
      XB=-11.090,-10.488,5.089,5.691,17.222,17.524, /
! ... 92 like lines cut
! F1 vault, from voxelization (569 voxels, voxel size is 0.200), in 6.645 s
&OBST ID='F1 vault_0', SURF_ID='wall.001', SAWTOOTH=.FALSE.,
      XB=-15.220,17.582,-16.423,-16.221,19.958,20.960, /
&OBST ID='F1 vault_1', SURF_ID='wall.001', SAWTOOTH=.FALSE.,
      XB=-11.820,-11.618,21.977,22.179,19.958,20.160, /
&OBST ID='F1 vault_2', SURF_ID='wall.001', SAWTOOTH=.FALSE.,
      XB=-16.820,-4.218,-8.423,-8.221,19.958,20.960, /
&OBST ID='F1 vault_3', SURF_ID='wall.001', SAWTOOTH=.FALSE.,
      XB=-17.020,-4.818,-7.823,-7.421,19.958,20.960, /
&OBST ID='F1 vault_4', SURF_ID='wall.001', SAWTOOTH=.FALSE.,
      XB=-17.620,-17.418,-5.023,-4.621,19.958,20.560, /
&OBST ID='F1 vault_5', SURF_ID='wall.001', SAWTOOTH=.FALSE.,
      XB=-1.620,9.182,-8.423,-8.221,20.758,20.960, /
&OBST ID='F1 vault_6', SURF_ID='wall.001', SAWTOOTH=.FALSE.,
      XB=-16.420,18.382,-11.423,-10.221,19.958,20.960, /
&OBST ID='F1 vault_7', SURF_ID='wall.001', SAWTOOTH=.FALSE.,
      XB=-12.220,-12.018,21.977,22.179,19.958,20.560, /
&OBST ID='F1 vault_8', SURF_ID='wall.001', SAWTOOTH=.FALSE.,
      XB=-17.420,-17.218,-4.223,-3.621,19.958,20.760, /
&OBST ID='F1 vault_9', SURF_ID='wall.001', SAWTOOTH=.FALSE.,
      XB=-17.220,-17.018,-1.423,-0.421,19.958,20.360, /
&OBST ID='F1 vault_10', SURF_ID='wall.001', SAWTOOTH=.FALSE.,
      XB=-17.420,-17.218,-3.223,-2.421,19.958,20.360, /
&OBST ID='F1 vault_11', SURF_ID='wall.001', SAWTOOTH=.FALSE.,
      XB=15.580,15.782,12.977,13.179,19.958,20.760, /
&OBST ID='F1 vault_12', SURF_ID='wall.001', SAWTOOTH=.FALSE.,
      XB=-9.220,-9.018,21.377,21.579,19.958,20.160, /
&OBST ID='F1 vault_13', SURF_ID='wall.001', SAWTOOTH=.FALSE.,
      XB=-9.820,-3.018,6.377,6.579,19.958,20.960, /
&OBST ID='F1 vault_14', SURF_ID='wall.001', SAWTOOTH=.FALSE.,
      XB=12.180,12.382,-17.823,-17.621,19.958,20.360, /
&OBST ID='F1 vault_15', SURF_ID='wall.001', SAWTOOTH=.FALSE.,
      XB=10.580,16.782,7.777,7.979,19.958,20.960, /
&OBST ID='F1 vault_16', SURF_ID='wall.001', SAWTOOTH=.FALSE.,
      XB=-17.020,-4.618,-8.223,-7.821,19.958,20.960, /
&OBST ID='F1 vault_17', SURF_ID='wall.001', SAWTOOTH=.FALSE.,
      XB=-15.420,-15.218,-17.423,-17.021,19.958,20.360, /
&OBST ID='F1 vault_18', SURF_ID='wall.001', SAWTOOTH=.FALSE.,
      XB=-16.220,18.382,-11.823,-11.421,19.958,20.960, /
&OBST ID='F1 vault_19', SURF_ID='wall.001', SAWTOOTH=.FALSE.,
      XB=-10.220,-8.218,-18.223,-18.021,19.958,20.160, /
! ... 1098 like lines cut
! F1 walls, from voxelization (1363 voxels, voxel size is 0.200), in 7.321 s
&OBST ID='F1 walls_0', SURF_ID='wall.001', SAWTOOTH=.FALSE.,
      XB=-1.275,1.127,-21.165,-20.563,16.958,19.960, /
&OBST ID='F1 walls_1', SURF_ID='wall.001', SAWTOOTH=.FALSE.,
      XB=-4.875,-3.873,-1.765,-1.563,16.958,19.960, /
&OBST ID='F1 walls_2', SURF_ID='wall.001', SAWTOOTH=.FALSE.,
      XB=9.525,10.527,3.635,3.837,16.958,19.960, /
&OBST ID='F1 walls_3', SURF_ID='wall.001', SAWTOOTH=.FALSE.,
      XB=17.125,17.327,8.235,8.437,16.958,17.560, /
&OBST ID='F1 walls_4', SURF_ID='wall.001', SAWTOOTH=.FALSE.,
      XB=12.325,17.127,7.635,7.837,16.958,19.960, /
&OBST ID='F1 walls_5', SURF_ID='wall.001', SAWTOOTH=.FALSE.,
      XB=-3.075,-1.873,7.835,8.037,19.558,19.960, /
&OBST ID='F1 walls_6', SURF_ID='wall.001', SAWTOOTH=.FALSE.,
      XB=-19.075,-18.873,7.435,7.637,16.958,17.960, /
&OBST ID='F1 walls_7', SURF_ID='wall.001', SAWTOOTH=.FALSE.,
      XB=-8.275,-8.073,-18.565,-18.363,16.958,17.360, /
&OBST ID='F1 walls_8', SURF_ID='wall.001', SAWTOOTH=.FALSE.,
      XB=-16.675,-14.873,-11.365,-10.963,16.958,19.960, /
&OBST ID='F1 walls_9', SURF_ID='wall.001', SAWTOOTH=.FALSE.,
      XB=-16.075,-15.873,9.035,9.237,16.958,18.160, /
&OBST ID='F1 walls_10', SURF_ID='wall.001', SAWTOOTH=.FALSE.,
      XB=-15.275,-13.073,15.635,15.837,16.958,19.960, /
&OBST ID='F1 walls_11', SURF_ID='wall.001', SAWTOOTH=.FALSE.,
      XB=16.725,18.527,-14.965,-13.563,16.958,19.960, /
&OBST ID='F1 walls_12', SURF_ID='wall.001', SAWTOOTH=.FALSE.,
      XB=5.125,6.127,15.035,15.437,16.958,19.960, /
&OBST ID='F1 walls_13', SURF_ID='wall.001', SAWTOOTH=.FALSE.,
      XB=7.725,13.727,8.435,8.637,16.958,19.960, /
&OBST ID='F1 walls_14', SURF_ID='wall.001', SAWTOOTH=.FALSE.,
      XB=-15.875,-15.673,-16.365,-15.963,16.958,18.960, /
&OBST ID='F1 walls_15', SURF_ID='wall.001', SAWTOOTH=.FALSE.,
      XB=-6.875,-4.873,10.035,10.237,16.958,19.960, /
&OBST ID='F1 walls_16', SURF_ID='wall.001', SAWTOOTH=.FALSE.,
      XB=-1.275,-1.073,-18.765,-18.563,16.958,18.160, /
&OBST ID='F1 walls_17', SURF_ID='wall.001', SAWTOOTH=.FALSE.,
      XB=-14.075,-13.673,22.435,22.637,16.958,19.960, /
&OBST ID='F1 walls_18', SURF_ID='wall.001', SAWTOOTH=.FALSE.,
      XB=-4.475,-3.073,-17.765,-16.763,16.958,18.560, /
&OBST ID='F1 walls_19', SURF_ID='wall.001', SAWTOOTH=.FALSE.,
      XB=1.925,2.127,17.635,17.837,16.958,18.360, /
! ... 2686 like lines cut
! F2 glasspane.000, from bounding box, in 0.001 s
&OBST ID='F2 glasspane.000', SURF_ID='glass',
      XB=-2.257,-0.557,7.965,7.965,21.938,24.438, /
! F2 glasspane.001, from bounding box, in 0.001 s
&OBST ID='F2 glasspane.001', SURF_ID='glass',
      XB=1.897,3.597,8.402,8.402,21.938,24.438, /
! F2 glasspane.002, from bounding box, in 0.001 s
&OBST ID='F2 glasspane.002', SURF_ID='glass',
      XB=9.701,9.701,5.282,6.982,21.938,24.438, /
! F2 glasspane.003, from bounding box, in 0.001 s
&OBST ID='F2 glasspane.003', SURF_ID='glass',
      XB=9.825,9.825,1.090,2.790,21.938,24.438, /
! F2 glasspane.004, from bounding box, in 0.001 s
&OBST ID='F2 glasspane.004', SURF_ID='glass',
      XB=9.892,9.892,-3.593,-1.893,21.938,24.438, /
! F2 glasspane.005, from bounding box, in 0.001 s
&OBST ID='F2 glasspane.005', SURF_ID='glass',
      XB=10.116,10.116,-7.238,-5.538,21.938,24.438, /
! F2 glasspane.006, from bounding box, in 0.001 s
&OBST ID='F2 glasspane.006', SURF_ID='glass',
      XB=8.608,10.308,-8.794,-8.794,21.938,24.438, /
! F2 glasspane.007, from bounding box, in 0.001 s
&OBST ID='F2 glasspane.007', SURF_ID='glass',
      XB=5.748,7.448,-8.794,-8.794,21.938,24.438, /
! F2 glasspane.008, from bounding box, in 0.001 s
&OBST ID='F2 glasspane.008', SURF_ID='glass',
      XB=1.737,3.437,-8.794,-8.794,21.938,24.438, /
! F2 glasspane.009, from bounding box, in 0.001 s
&OBST ID='F2 glasspane.009', SURF_ID='glass',
      XB=-2.353,-0.653,-8.794,-8.794,21.938,24.438, /
! F2 glasspane.010, from bounding box, in 0.001 s
&OBST ID='F2 glasspane.010', SURF_ID='glass',
      XB=-4.460,-2.760,-17.342,-17.342,21.938,24.438, /
! F2 glasspane.011, from bounding box, in 0.001 s
&OBST ID='F2 glasspane.011', SURF_ID='glass',
      XB=-12.382,-10.682,-16.973,-16.973,21.938,24.438, /
! F2 glasspane.012, from bounding box, in 0.001 s
&OBST ID='F2 glasspane.012', SURF_ID='glass',
      XB=0.832,2.532,-21.055,-21.055,21.938,24.438, /
! F2 glasspane.013, from bounding box, in 0.001 s
&OBST ID='F2 glasspane.013', SURF_ID='glass',
      XB=9.212,10.912,-17.541,-17.541,21.938,24.438, /
! F2 glasspane.014, from bounding box, in 0.001 s
&OBST ID='F2 glasspane.014', SURF_ID='glass',
      XB=6.309,8.009,-18.082,-18.082,21.938,24.438, /
! F2 glasspane.015, from bounding box, in 0.001 s
&OBST ID='F2 glasspane.015', SURF_ID='glass',
      XB=13.375,15.075,-16.280,-16.280,21.938,24.438, /
! F2 glasspane.016, from bounding box, in 0.001 s
&OBST ID='F2 glasspane.016', SURF_ID='glass',
      XB=17.493,17.493,-13.339,-11.639,21.938,24.438, /
! F2 glasspane.017, from bounding box, in 0.001 s
&OBST ID='F2 glasspane.017', SURF_ID='glass',
      XB=17.493,17.493,-6.916,-4.416,21.938,24.438, /
! F2 glasspane.018, from bounding box, in 0.001 s
&OBST ID='F2 glasspane.018', SURF_ID='glass',
      XB=20.751,20.751,-2.481,-0.781,21.938,24.438, /
! F2 glasspane.019, from bounding box, in 0.001 s
&OBST ID='F2 glasspane.019', SURF_ID='glass',
      XB=17.191,17.191,1.996,3.696,21.938,24.438, /
! ... 22 like lines cut
&OBST ID='F2 glasspane.027', SURF_ID='glass', DEVC_ID='F2 glasspane.027 break',
      XB=-9.021,-7.321,18.025,18.025,21.938,24.438, /
! F2 glasspane.028, from bounding box, in 0.001 s
&OBST ID='F2 glasspane.028', SURF_ID='glass', DEVC_ID='F2 glasspane.028 break',
      XB=-12.472,-10.772,21.347,21.347,21.938,24.438, /
! F2 glasspane.029, from bounding box, in 0.001 s
&OBST ID='F2 glasspane.029', SURF_ID='glass', DEVC_ID='F2 glasspane.028 break',
      XB=-13.952,-13.952,19.405,21.105,21.938,24.438, /
! F2 glasspane.030, from bounding box, in 0.001 s
&OBST ID='F2 glasspane.030', SURF_ID='glass', DEVC_ID='F2 glasspane.030 break',
      XB=-14.418,-14.418,15.487,17.187,21.938,24.438, /
! F2 glasspane.031, from bounding box, in 0.001 s
&OBST ID='F2 glasspane.031', SURF_ID='glass', DEVC_ID='F2 glasspane.031 break',
      XB=-15.316,-15.316,11.479,13.179,21.938,24.438, /
! F2 glasspane.032, from bounding box, in 0.001 s
&OBST ID='F2 glasspane.032', SURF_ID='glass',
      XB=-17.988,-16.288,6.756,6.756,22.037,24.537, /
! F2 glasspane.033, from bounding box, in 0.001 s
&OBST ID='F2 glasspane.033', SURF_ID='glass',
      XB=-19.596,-19.596,3.643,5.343,21.895,24.395, /
! F2 glasspane.034, from bounding box, in 0.001 s
&OBST ID='F2 glasspane.034', SURF_ID='glass',
      XB=-16.356,-16.356,-1.050,0.650,21.895,24.395, /
! F2 glasspane.035, from bounding box, in 0.001 s
&OBST ID='F2 glasspane.035', SURF_ID='glass',
      XB=-16.532,-16.532,-7.748,-6.048,21.895,24.395, /
! F2 glasspane.036, from bounding box, in 0.001 s
&OBST ID='F2 glasspane.036', SURF_ID='glass',
      XB=-15.515,-15.515,-13.551,-11.851,21.895,24.395, /
! F2 glasspane.037, from bounding box, in 0.001 s
&OBST ID='F2 glasspane.037', SURF_ID='glass',
      XB=-0.585,-0.585,-19.814,-18.114,21.938,24.438, /
! F2 glasspane.038, from bounding box, in 0.001 s
&OBST ID='F2 glasspane.038', SURF_ID='glass',
      XB=4.250,4.250,-20.231,-18.531,21.938,24.438, /
! F2 glasspane.039, from bounding box, in 0.001 s
&OBST ID='F2 glasspane.039', SURF_ID='glass', DEVC_ID='F2 glasspane.028 break',
      XB=-9.964,-9.964,19.442,20.442,21.938,24.438, /
! F2 glasspane.040, from bounding box, in 0.001 s
&OBST ID='F2 glasspane.040', SURF_ID='glass',
      XB=18.273,19.973,1.054,1.054,21.938,24.438, /
! F2 staircase, from voxelization (67 voxels, voxel size is 0.300), in 0.110 s
&OBST ID='F2 staircase_0', SURF_ID='stair',
      XB=-11.989,-11.687,5.989,6.891,21.983,22.585, /
&OBST ID='F2 staircase_1', SURF_ID='stair',
      XB=-11.389,-11.087,7.489,8.391,24.383,24.685, /
&OBST ID='F2 staircase_2', SURF_ID='stair',
      XB=-11.989,-11.687,6.889,7.191,22.283,22.585, /
&OBST ID='F2 staircase_3', SURF_ID='stair',
      XB=-11.689,-11.387,5.089,5.991,21.683,22.285, /
&OBST ID='F2 staircase_4', SURF_ID='stair',
      XB=-12.289,-11.987,5.089,5.391,21.983,22.585, /
&OBST ID='F2 staircase_5', SURF_ID='stair',
      XB=-9.589,-9.287,7.489,8.391,25.283,25.885, /
&OBST ID='F2 staircase_6', SURF_ID='stair',
      XB=-12.889,-12.587,5.389,6.291,22.583,22.885, /
&OBST ID='F2 staircase_7', SURF_ID='stair',
      XB=-14.989,-13.187,7.489,7.791,23.183,23.485, /
&OBST ID='F2 staircase_8', SURF_ID='stair',
      XB=-9.889,-9.587,8.389,8.991,24.983,25.585, /
&OBST ID='F2 staircase_9', SURF_ID='stair',
      XB=-12.589,-12.287,6.289,7.191,22.583,22.885, /
&OBST ID='F2 staircase_10', SURF_ID='stair',
      XB=-10.189,-9.887,5.089,6.291,20.783,21.385, /
&OBST ID='F2 staircase_11', SURF_ID='stair',
      XB=-11.089,-10.787,8.389,9.291,24.383,24.685, /
&OBST ID='F2 staircase_12', SURF_ID='stair',
      XB=-11.389,-11.087,5.089,6.591,21.683,21.985, /
&OBST ID='F2 staircase_13', SURF_ID='stair',
      XB=-12.889,-12.587,8.089,8.991,23.183,23.785, /
&OBST ID='F2 staircase_14', SURF_ID='stair',
      XB=-15.289,-13.487,5.689,6.891,23.183,23.485, /
&OBST ID='F2 staircase_15', SURF_ID='stair',
      XB=-10.789,-10.487,7.489,8.691,24.683,24.985, /
&OBST ID='F2 staircase_16', SURF_ID='stair',
      XB=-9.289,-8.987,7.489,8.991,25.583,25.885, /
&OBST ID='F2 staircase_17', SURF_ID='stair',
      XB=-10.189,-9.887,4.789,5.091,20.783,21.085, /
&OBST ID='F2 staircase_18', SURF_ID='stair',
      XB=-10.189,-9.887,7.789,8.991,24.983,25.285, /
&OBST ID='F2 staircase_19', SURF_ID='stair',
      XB=-13.189,-12.887,5.389,5.991,22.583,23.185, /
! ... 94 like lines cut
! F2 vault, from voxelization (242 voxels, voxel size is 0.200), in 6.049 s
&OBST ID='F2 vault_0', SURF_ID='wall.002', SAWTOOTH=.FALSE.,
      XB=4.845,5.847,16.604,16.806,25.441,25.843, /
&OBST ID='F2 vault_1', SURF_ID='wall.002', SAWTOOTH=.FALSE.,
      XB=-14.755,4.847,16.604,16.806,25.441,26.043, /
&OBST ID='F2 vault_2', SURF_ID='wall.002', SAWTOOTH=.FALSE.,
      XB=-14.355,-14.153,20.404,20.606,25.441,25.643, /
&OBST ID='F2 vault_3', SURF_ID='wall.002', SAWTOOTH=.FALSE.,
      XB=-18.555,-18.153,7.204,7.406,25.441,25.643, /
&OBST ID='F2 vault_4', SURF_ID='wall.002', SAWTOOTH=.FALSE.,
      XB=-19.755,-12.553,5.204,5.406,25.441,26.043, /
&OBST ID='F2 vault_5', SURF_ID='wall.002', SAWTOOTH=.FALSE.,
      XB=-20.155,-19.953,4.204,4.406,25.441,25.643, /
&OBST ID='F2 vault_6', SURF_ID='wall.002', SAWTOOTH=.FALSE.,
      XB=13.445,13.847,15.604,15.806,25.441,25.843, /
&OBST ID='F2 vault_7', SURF_ID='wall.002', SAWTOOTH=.FALSE.,
      XB=-14.955,10.247,16.004,16.206,25.441,26.043, /
&OBST ID='F2 vault_8', SURF_ID='wall.002', SAWTOOTH=.FALSE.,
      XB=-16.155,-15.953,9.404,9.606,25.441,25.843, /
&OBST ID='F2 vault_9', SURF_ID='wall.002', SAWTOOTH=.FALSE.,
      XB=-14.555,-6.553,18.004,18.206,25.441,26.043, /
&OBST ID='F2 vault_10', SURF_ID='wall.002', SAWTOOTH=.FALSE.,
      XB=-1.955,-1.553,-8.196,-7.994,25.441,26.043, /
&OBST ID='F2 vault_11', SURF_ID='wall.002', SAWTOOTH=.FALSE.,
      XB=9.445,16.647,5.804,6.406,25.441,26.043, /
&OBST ID='F2 vault_12', SURF_ID='wall.002', SAWTOOTH=.FALSE.,
      XB=5.845,6.647,16.604,16.806,25.441,25.643, /
&OBST ID='F2 vault_13', SURF_ID='wall.002', SAWTOOTH=.FALSE.,
      XB=-3.555,-2.553,17.804,18.006,25.441,25.643, /
&OBST ID='F2 vault_14', SURF_ID='wall.002', SAWTOOTH=.FALSE.,
      XB=-1.755,-1.553,17.604,17.806,25.441,25.643, /
&OBST ID='F2 vault_15', SURF_ID='wall.002', SAWTOOTH=.FALSE.,
      XB=-9.755,-3.153,4.804,5.406,25.441,26.043, /
&OBST ID='F2 vault_16', SURF_ID='wall.002', SAWTOOTH=.FALSE.,
      XB=2.245,2.647,17.004,17.206,25.441,25.643, /
&OBST ID='F2 vault_17', SURF_ID='wall.002', SAWTOOTH=.FALSE.,
      XB=-12.955,-11.753,7.404,7.606,25.441,26.043, /
&OBST ID='F2 vault_18', SURF_ID='wall.002', SAWTOOTH=.FALSE.,
      XB=-15.155,-14.953,15.204,15.406,25.441,25.843, /
&OBST ID='F2 vault_19', SURF_ID='wall.002', SAWTOOTH=.FALSE.,
      XB=-14.955,13.447,15.604,15.806,25.441,26.043, /
! ... 444 like lines cut
! F2 walls, from voxelization (1342 voxels, voxel size is 0.200), in 8.738 s
&OBST ID='F2 walls_0', SURF_ID='wall.002', SAWTOOTH=.FALSE.,
      XB=16.845,18.047,-5.796,-4.594,24.541,25.543, /
&OBST ID='F2 walls_1', SURF_ID='wall.002', SAWTOOTH=.FALSE.,
      XB=-7.955,-7.753,-13.596,-13.394,23.541,25.543, /
&OBST ID='F2 walls_2', SURF_ID='wall.002', SAWTOOTH=.FALSE.,
      XB=13.445,15.047,-15.596,-15.394,20.941,21.943, /
&OBST ID='F2 walls_3', SURF_ID='wall.002', SAWTOOTH=.FALSE.,
      XB=-5.755,-5.553,18.204,18.406,20.941,24.343, /
&OBST ID='F2 walls_4', SURF_ID='wall.002', SAWTOOTH=.FALSE.,
      XB=-5.955,-5.753,-17.996,-17.794,20.941,23.343, /
&OBST ID='F2 walls_5', SURF_ID='wall.002', SAWTOOTH=.FALSE.,
      XB=-16.355,-15.153,2.404,2.806,23.541,25.543, /
&OBST ID='F2 walls_6', SURF_ID='wall.002', SAWTOOTH=.FALSE.,
      XB=-10.555,-6.553,-16.596,-16.394,20.941,25.543, /
&OBST ID='F2 walls_7', SURF_ID='wall.002', SAWTOOTH=.FALSE.,
      XB=9.845,10.847,-10.796,-9.394,20.941,25.543, /
&OBST ID='F2 walls_8', SURF_ID='wall.002', SAWTOOTH=.FALSE.,
      XB=2.245,2.847,17.204,17.406,20.941,21.943, /
&OBST ID='F2 walls_9', SURF_ID='wall.002', SAWTOOTH=.FALSE.,
      XB=-14.755,-14.553,17.404,17.606,24.541,25.543, /
&OBST ID='F2 walls_10', SURF_ID='wall.002', SAWTOOTH=.FALSE.,
      XB=16.845,17.047,-16.396,-16.194,20.941,22.543, /
&OBST ID='F2 walls_11', SURF_ID='wall.002', SAWTOOTH=.FALSE.,
      XB=-4.755,-4.553,-1.996,-1.794,23.741,25.543, /
&OBST ID='F2 walls_12', SURF_ID='wall.002', SAWTOOTH=.FALSE.,
      XB=-11.355,-10.353,-16.196,-15.994,20.941,21.943, /
&OBST ID='F2 walls_13', SURF_ID='wall.002', SAWTOOTH=.FALSE.,
      XB=15.845,16.047,11.004,11.206,20.941,22.143, /
&OBST ID='F2 walls_14', SURF_ID='wall.002', SAWTOOTH=.FALSE.,
      XB=15.845,16.047,10.604,10.806,20.941,23.143, /
&OBST ID='F2 walls_15', SURF_ID='wall.002', SAWTOOTH=.FALSE.,
      XB=16.045,16.847,5.604,5.806,20.941,25.543, /
&OBST ID='F2 walls_16', SURF_ID='wall.002', SAWTOOTH=.FALSE.,
      XB=-1.955,-1.353,7.404,7.606,20.941,21.943, /
&OBST ID='F2 walls_17', SURF_ID='wall.002', SAWTOOTH=.FALSE.,
      XB=-4.155,-3.953,-1.396,-1.194,20.941,21.743, /
&OBST ID='F2 walls_18', SURF_ID='wall.002', SAWTOOTH=.FALSE.,
      XB=3.845,4.047,-18.996,-18.794,24.541,25.543, /
&OBST ID='F2 walls_19', SURF_ID='wall.002', SAWTOOTH=.FALSE.,
      XB=-17.555,-16.753,7.004,7.206,24.541,25.543, /
! ... 2644 like lines cut
! F3 glasspane.000, from bounding box, in 0.001 s
&OBST ID='F3 glasspane.000', SURF_ID='glass',
      XB=6.228,7.928,-18.071,-18.071,26.982,29.482, /
! F3 glasspane.001, from bounding box, in 0.001 s
&OBST ID='F3 glasspane.001', SURF_ID='glass',
      XB=9.186,10.886,-17.509,-17.509,26.982,29.482, /
! F3 glasspane.002, from bounding box, in 0.001 s
&OBST ID='F3 glasspane.002', SURF_ID='glass',
      XB=13.354,15.054,-16.181,-16.181,26.982,29.482, /
! F3 glasspane.003, from bounding box, in 0.001 s
&OBST ID='F3 glasspane.003', SURF_ID='glass',
      XB=0.797,2.497,-21.003,-21.003,26.982,29.482, /
! F3 glasspane.004, from bounding box, in 0.001 s
&OBST ID='F3 glasspane.004', SURF_ID='glass',
      XB=-4.660,-2.960,-17.640,-17.640,26.982,29.482, /
! F3 glasspane.005, from bounding box, in 0.001 s
&OBST ID='F3 glasspane.005', SURF_ID='glass',
      XB=-9.066,-7.366,-17.234,-17.234,26.982,29.482, /
! F3 glasspane.006, from bounding box, in 0.001 s
&OBST ID='F3 glasspane.006', SURF_ID='glass',
      XB=-12.561,-10.861,-17.077,-17.077,26.982,29.482, /
! F3 glasspane.007, from bounding box, in 0.001 s
&OBST ID='F3 glasspane.007', SURF_ID='glass',
      XB=-15.582,-15.582,-13.711,-12.011,26.982,29.482, /
! F3 glasspane.008, from bounding box, in 0.001 s
&OBST ID='F3 glasspane.008', SURF_ID='glass',
      XB=-16.668,-16.668,-7.949,-6.249,26.982,29.482, /
! F3 glasspane.009, from bounding box, in 0.001 s
&OBST ID='F3 glasspane.009', SURF_ID='glass',
      XB=-16.453,-16.453,-1.073,0.627,26.982,29.482, /
! F3 glasspane.010, from bounding box, in 0.001 s
&OBST ID='F3 glasspane.010', SURF_ID='glass',
      XB=-19.571,-19.571,3.561,5.261,26.982,29.482, /
! F3 glasspane.011, from bounding box, in 0.001 s
&OBST ID='F3 glasspane.011', SURF_ID='glass',
      XB=-15.070,-15.070,11.557,13.257,26.982,29.482, /
! F3 glasspane.012, from bounding box, in 0.001 s
&OBST ID='F3 glasspane.012', SURF_ID='glass',
      XB=-14.316,-14.316,15.364,17.064,26.982,29.482, /
! F3 glasspane.013, from bounding box, in 0.001 s
&OBST ID='F3 glasspane.013', SURF_ID='glass',
      XB=-13.704,-13.704,19.370,21.070,26.982,29.482, /
! F3 glasspane.014, from bounding box, in 0.001 s
&OBST ID='F3 glasspane.014', SURF_ID='glass',
      XB=-12.342,-10.642,21.365,21.366,26.982,29.482, /
! F3 glasspane.015, from bounding box, in 0.001 s
&OBST ID='F3 glasspane.015', SURF_ID='glass',
      XB=-9.145,-7.445,17.799,17.799,26.982,29.482, /
! F3 glasspane.016, from bounding box, in 0.001 s
&OBST ID='F3 glasspane.016', SURF_ID='glass',
      XB=-2.941,-1.241,17.273,17.273,26.982,29.482, /
! F3 glasspane.017, from bounding box, in 0.001 s
&OBST ID='F3 glasspane.017', SURF_ID='glass',
      XB=-9.983,-9.983,18.994,20.694,26.982,29.482, /
! F3 glasspane.018, from bounding box, in 0.001 s
&OBST ID='F3 glasspane.018', SURF_ID='glass',
      XB=1.792,3.492,16.610,16.610,26.982,29.482, /
! F3 glasspane.019, from bounding box, in 0.001 s
&OBST ID='F3 glasspane.019', SURF_ID='glass',
      XB=7.210,8.910,15.854,15.854,26.982,29.482, /
! ... 69 like lines cut
! F3 roof staircase, from voxelization (419 voxels, voxel size is 0.100), in 0.552 s
&OBST ID='F3 roof staircase_0', SURF_ID='roof.001', SAWTOOTH=.FALSE.,
      XB=-4.841,-4.339,-8.503,-8.401,30.048,30.250, /
&OBST ID='F3 roof staircase_1', SURF_ID='roof.001', SAWTOOTH=.FALSE.,
      XB=-0.141,-0.039,-7.503,-7.401,29.348,29.650, /
&OBST ID='F3 roof staircase_2', SURF_ID='roof.001', SAWTOOTH=.FALSE.,
      XB=-0.141,0.061,-7.603,-7.501,29.348,29.650, /
&OBST ID='F3 roof staircase_3', SURF_ID='roof.001', SAWTOOTH=.FALSE.,
      XB=-3.841,-3.139,-5.103,-5.001,29.548,29.850, /
&OBST ID='F3 roof staircase_4', SURF_ID='roof.001', SAWTOOTH=.FALSE.,
      XB=-3.441,-2.639,-4.703,-4.601,29.448,29.750, /
&OBST ID='F3 roof staircase_5', SURF_ID='roof.001', SAWTOOTH=.FALSE.,
      XB=-1.641,-1.539,-5.903,-5.801,29.348,29.750, /
&OBST ID='F3 roof staircase_6', SURF_ID='roof.001', SAWTOOTH=.FALSE.,
      XB=-3.241,-3.139,-5.903,-5.801,29.548,29.950, /
&OBST ID='F3 roof staircase_7', SURF_ID='roof.001', SAWTOOTH=.FALSE.,
      XB=-3.941,-3.839,-4.203,-4.101,29.448,29.850, /
&OBST ID='F3 roof staircase_8', SURF_ID='roof.001', SAWTOOTH=.FALSE.,
      XB=-2.741,-1.939,-5.503,-5.401,29.448,29.750, /
&OBST ID='F3 roof staircase_9', SURF_ID='roof.001', SAWTOOTH=.FALSE.,
      XB=-2.641,-1.839,-6.503,-6.401,29.548,29.850, /
&OBST ID='F3 roof staircase_10', SURF_ID='roof.001', SAWTOOTH=.FALSE.,
      XB=-0.841,-0.039,-7.703,-7.601,29.448,29.750, /
&OBST ID='F3 roof staircase_11', SURF_ID='roof.001', SAWTOOTH=.FALSE.,
      XB=-0.641,0.161,-7.903,-7.801,29.448,29.750, /
&OBST ID='F3 roof staircase_12', SURF_ID='roof.001', SAWTOOTH=.FALSE.,
      XB=-5.041,-4.239,-8.303,-8.201,30.048,30.350, /
&OBST ID='F3 roof staircase_13', SURF_ID='roof.001', SAWTOOTH=.FALSE.,
      XB=-4.541,-4.039,-3.103,-3.001,29.448,29.750, /
&OBST ID='F3 roof staircase_14', SURF_ID='roof.001', SAWTOOTH=.FALSE.,
      XB=-4.241,-3.439,-5.603,-5.501,29.648,29.950, /
&OBST ID='F3 roof staircase_15', SURF_ID='roof.001', SAWTOOTH=.FALSE.,
      XB=-1.241,-0.439,-7.203,-7.101,29.448,29.750, /
&OBST ID='F3 roof staircase_16', SURF_ID='roof.001', SAWTOOTH=.FALSE.,
      XB=0.459,0.561,-8.203,-8.101,29.348,29.650, /
&OBST ID='F3 roof staircase_17', SURF_ID='roof.001', SAWTOOTH=.FALSE.,
      XB=-0.541,0.261,-8.003,-7.901,29.448,29.750, /
&OBST ID='F3 roof staircase_18', SURF_ID='roof.001', SAWTOOTH=.FALSE.,
      XB=-2.841,-2.739,-4.503,-4.401,29.348,29.650, /
&OBST ID='F3 roof staircase_19', SURF_ID='roof.001', SAWTOOTH=.FALSE.,
      XB=-3.141,-2.439,-7.703,-7.601,29.748,30.050, /
! ... 798 like lines cut
! F3 staircase, from voxelization (67 voxels, voxel size is 0.300), in 0.111 s
&OBST ID='F3 staircase_0', SURF_ID='stair',
      XB=-11.989,-11.687,5.989,6.891,26.983,27.585, /
&OBST ID='F3 staircase_1', SURF_ID='stair',
      XB=-11.389,-11.087,7.489,8.391,29.383,29.685, /
&OBST ID='F3 staircase_2', SURF_ID='stair',
      XB=-11.989,-11.687,6.889,7.191,27.283,27.585, /
&OBST ID='F3 staircase_3', SURF_ID='stair',
      XB=-11.689,-11.387,5.089,5.991,26.683,27.285, /
&OBST ID='F3 staircase_4', SURF_ID='stair',
      XB=-12.289,-11.987,5.089,5.391,26.983,27.585, /
&OBST ID='F3 staircase_5', SURF_ID='stair',
      XB=-9.589,-9.287,7.489,8.391,30.283,30.885, /
&OBST ID='F3 staircase_6', SURF_ID='stair',
      XB=-12.889,-12.587,5.389,6.291,27.583,27.885, /
&OBST ID='F3 staircase_7', SURF_ID='stair',
      XB=-14.989,-13.187,7.489,7.791,28.183,28.485, /
&OBST ID='F3 staircase_8', SURF_ID='stair',
      XB=-9.889,-9.587,8.389,8.991,29.983,30.585, /
&OBST ID='F3 staircase_9', SURF_ID='stair',
      XB=-12.589,-12.287,6.289,7.191,27.583,27.885, /
&OBST ID='F3 staircase_10', SURF_ID='stair',
      XB=-10.189,-9.887,5.089,6.291,25.783,26.385, /
&OBST ID='F3 staircase_11', SURF_ID='stair',
      XB=-11.089,-10.787,8.389,9.291,29.383,29.685, /
&OBST ID='F3 staircase_12', SURF_ID='stair',
      XB=-11.389,-11.087,5.089,6.591,26.683,26.985, /
&OBST ID='F3 staircase_13', SURF_ID='stair',
      XB=-12.889,-12.587,8.089,8.991,28.183,28.785, /
&OBST ID='F3 staircase_14', SURF_ID='stair',
      XB=-15.289,-13.487,5.689,6.891,28.183,28.485, /
&OBST ID='F3 staircase_15', SURF_ID='stair',
      XB=-10.789,-10.487,7.489,8.691,29.683,29.985, /
&OBST ID='F3 staircase_16', SURF_ID='stair',
      XB=-9.289,-8.987,7.489,8.991,30.583,30.885, /
&OBST ID='F3 staircase_17', SURF_ID='stair',
      XB=-10.189,-9.887,4.789,5.091,25.783,26.085, /
&OBST ID='F3 staircase_18', SURF_ID='stair',
      XB=-10.189,-9.887,7.789,8.991,29.983,30.285, /
&OBST ID='F3 staircase_19', SURF_ID='stair',
      XB=-13.189,-12.887,5.389,5.991,27.583,28.185, /
! ... 94 like lines cut
! F3 vault, from voxelization (113 voxels, voxel size is 0.200), in 5.895 s
&OBST ID='F3 vault_0', SURF_ID='wall.002', SAWTOOTH=.FALSE.,
      XB=-1.229,4.573,-21.196,-19.594,30.441,31.043, /
&OBST ID='F3 vault_1', SURF_ID='wall.002', SAWTOOTH=.FALSE.,
      XB=-14.429,0.573,17.004,17.206,30.441,31.043, /
&OBST ID='F3 vault_2', SURF_ID='wall.002', SAWTOOTH=.FALSE.,
      XB=-15.229,14.773,12.004,13.006,30.441,31.043, /
&OBST ID='F3 vault_3', SURF_ID='wall.002', SAWTOOTH=.FALSE.,
      XB=-17.429,-3.827,1.404,1.606,30.441,31.043, /
&OBST ID='F3 vault_4', SURF_ID='wall.002', SAWTOOTH=.FALSE.,
      XB=9.571,20.973,-0.996,1.206,30.441,31.043, /
&OBST ID='F3 vault_5', SURF_ID='wall.002', SAWTOOTH=.FALSE.,
      XB=-16.829,-4.027,0.004,0.206,30.441,31.043, /
&OBST ID='F3 vault_6', SURF_ID='wall.002', SAWTOOTH=.FALSE.,
      XB=-20.229,-3.827,1.804,2.806,30.441,31.043, /
&OBST ID='F3 vault_7', SURF_ID='wall.002', SAWTOOTH=.FALSE.,
      XB=9.571,16.973,3.404,4.006,30.441,31.043, /
&OBST ID='F3 vault_8', SURF_ID='wall.002', SAWTOOTH=.FALSE.,
      XB=-20.029,-3.627,2.804,3.806,30.441,31.043, /
&OBST ID='F3 vault_9', SURF_ID='wall.002', SAWTOOTH=.FALSE.,
      XB=-16.029,15.573,8.404,9.206,30.441,31.043, /
&OBST ID='F3 vault_10', SURF_ID='wall.002', SAWTOOTH=.FALSE.,
      XB=9.971,18.173,-7.796,-7.194,30.441,31.043, /
&OBST ID='F3 vault_11', SURF_ID='wall.002', SAWTOOTH=.FALSE.,
      XB=-15.029,14.573,13.204,14.206,30.441,31.043, /
&OBST ID='F3 vault_12', SURF_ID='wall.002', SAWTOOTH=.FALSE.,
      XB=-16.429,17.773,-10.996,-10.394,30.441,31.043, /
&OBST ID='F3 vault_13', SURF_ID='wall.002', SAWTOOTH=.FALSE.,
      XB=-17.029,-4.627,-3.396,-2.594,30.441,31.043, /
&OBST ID='F3 vault_14', SURF_ID='wall.002', SAWTOOTH=.FALSE.,
      XB=-19.629,-3.227,5.604,6.206,30.441,31.043, /
&OBST ID='F3 vault_15', SURF_ID='wall.002', SAWTOOTH=.FALSE.,
      XB=-16.229,17.773,-11.796,-10.994,30.441,31.043, /
&OBST ID='F3 vault_16', SURF_ID='wall.002', SAWTOOTH=.FALSE.,
      XB=9.371,16.173,6.204,6.806,30.441,31.043, /
&OBST ID='F3 vault_17', SURF_ID='wall.002', SAWTOOTH=.FALSE.,
      XB=9.771,21.173,-4.596,-3.794,30.441,31.043, /
&OBST ID='F3 vault_18', SURF_ID='wall.002', SAWTOOTH=.FALSE.,
      XB=9.571,16.773,4.004,4.206,30.441,31.043, /
&OBST ID='F3 vault_19', SURF_ID='wall.002', SAWTOOTH=.FALSE.,
      XB=-16.429,-1.227,7.404,7.606,30.441,31.043, /
! ... 186 like lines cut
! F3 walls, from voxelization (1138 voxels, voxel size is 0.200), in 8.692 s
&OBST ID='F3 walls_0', SURF_ID='wall.002', SAWTOOTH=.FALSE.,
      XB=16.717,16.919,4.404,4.606,25.941,29.143, /
&OBST ID='F3 walls_1', SURF_ID='wall.002', SAWTOOTH=.FALSE.,
      XB=-4.283,-3.081,-17.996,-17.594,29.541,30.543, /
&OBST ID='F3 walls_2', SURF_ID='wall.002', SAWTOOTH=.FALSE.,
      XB=-14.883,-12.481,-16.796,-16.594,25.941,30.543, /
&OBST ID='F3 walls_3', SURF_ID='wall.002', SAWTOOTH=.FALSE.,
      XB=-9.283,-8.281,-8.396,-8.194,25.941,30.543, /
&OBST ID='F3 walls_4', SURF_ID='wall.002', SAWTOOTH=.FALSE.,
      XB=-0.083,0.319,10.404,11.406,25.941,30.543, /
&OBST ID='F3 walls_5', SURF_ID='wall.002', SAWTOOTH=.FALSE.,
      XB=-16.883,-15.481,6.204,6.806,25.941,30.543, /
&OBST ID='F3 walls_6', SURF_ID='wall.002', SAWTOOTH=.FALSE.,
      XB=-8.683,-8.281,-2.596,-2.394,28.541,30.543, /
&OBST ID='F3 walls_7', SURF_ID='wall.002', SAWTOOTH=.FALSE.,
      XB=13.717,14.919,12.204,12.606,25.941,26.943, /
&OBST ID='F3 walls_8', SURF_ID='wall.002', SAWTOOTH=.FALSE.,
      XB=14.317,14.519,15.204,15.406,25.941,28.943, /
&OBST ID='F3 walls_9', SURF_ID='wall.002', SAWTOOTH=.FALSE.,
      XB=-8.883,-7.681,-17.596,-17.394,29.541,30.543, /
&OBST ID='F3 walls_10', SURF_ID='wall.002', SAWTOOTH=.FALSE.,
      XB=10.117,10.719,-12.796,-12.194,25.941,30.543, /
&OBST ID='F3 walls_11', SURF_ID='wall.002', SAWTOOTH=.FALSE.,
      XB=13.517,13.719,12.804,13.006,29.541,30.543, /
&OBST ID='F3 walls_12', SURF_ID='wall.002', SAWTOOTH=.FALSE.,
      XB=-1.283,0.519,17.004,17.206,25.941,30.543, /
&OBST ID='F3 walls_13', SURF_ID='wall.002', SAWTOOTH=.FALSE.,
      XB=16.917,18.719,0.604,1.206,25.941,30.543, /
&OBST ID='F3 walls_14', SURF_ID='wall.002', SAWTOOTH=.FALSE.,
      XB=-20.083,-19.881,3.604,3.806,25.941,30.143, /
&OBST ID='F3 walls_15', SURF_ID='wall.002', SAWTOOTH=.FALSE.,
      XB=10.717,10.919,15.804,16.006,27.341,28.543, /
&OBST ID='F3 walls_16', SURF_ID='wall.002', SAWTOOTH=.FALSE.,
      XB=-16.083,-15.881,9.404,9.606,25.941,29.943, /
&OBST ID='F3 walls_17', SURF_ID='wall.002', SAWTOOTH=.FALSE.,
      XB=-15.883,-14.681,9.604,9.806,25.941,30.543, /
&OBST ID='F3 walls_18', SURF_ID='wall.002', SAWTOOTH=.FALSE.,
      XB=17.117,17.519,1.804,2.006,25.941,30.543, /
&OBST ID='F3 walls_19', SURF_ID='wall.002', SAWTOOTH=.FALSE.,
      XB=-20.483,-20.281,1.804,2.006,25.941,29.743, /
! ... 2236 like lines cut
! F4 roof big, from voxelization (1577 voxels, voxel size is 0.300), in 3.899 s
&OBST ID='F4 roof big_0', SURF_ID='roof.001', SAWTOOTH=.FALSE.,
      XB=-13.494,-12.892,-8.085,-5.983,30.849,34.751, /
&OBST ID='F4 roof big_1', SURF_ID='roof.001', SAWTOOTH=.FALSE.,
      XB=14.106,14.408,13.815,14.717,30.849,32.651, /
&OBST ID='F4 roof big_2', SURF_ID='roof.001', SAWTOOTH=.FALSE.,
      XB=13.806,14.108,14.115,14.717,30.849,32.951, /
&OBST ID='F4 roof big_3', SURF_ID='roof.001', SAWTOOTH=.FALSE.,
      XB=-9.894,-8.692,14.715,15.017,30.849,35.051, /
&OBST ID='F4 roof big_4', SURF_ID='roof.001', SAWTOOTH=.FALSE.,
      XB=-2.994,-2.692,1.215,3.617,30.849,31.151, /
&OBST ID='F4 roof big_5', SURF_ID='roof.001', SAWTOOTH=.FALSE.,
      XB=17.406,18.008,-0.585,-0.283,30.849,32.351, /
&OBST ID='F4 roof big_6', SURF_ID='roof.001', SAWTOOTH=.FALSE.,
      XB=14.406,14.708,4.815,7.217,30.849,34.751, /
&OBST ID='F4 roof big_7', SURF_ID='roof.001', SAWTOOTH=.FALSE.,
      XB=-5.394,-4.792,-6.285,-5.983,30.849,32.351, /
&OBST ID='F4 roof big_8', SURF_ID='roof.001', SAWTOOTH=.FALSE.,
      XB=17.106,17.408,5.115,6.017,30.849,31.451, /
&OBST ID='F4 roof big_9', SURF_ID='roof.001', SAWTOOTH=.FALSE.,
      XB=13.806,14.708,-14.985,-14.683,30.849,34.151, /
&OBST ID='F4 roof big_10', SURF_ID='roof.001', SAWTOOTH=.FALSE.,
      XB=13.806,14.408,-3.285,-2.983,30.849,35.951, /
&OBST ID='F4 roof big_11', SURF_ID='roof.001', SAWTOOTH=.FALSE.,
      XB=11.406,12.608,12.615,12.917,30.849,35.651, /
&OBST ID='F4 roof big_12', SURF_ID='roof.001', SAWTOOTH=.FALSE.,
      XB=9.606,9.908,-1.785,5.117,30.849,32.951, /
&OBST ID='F4 roof big_13', SURF_ID='roof.001', SAWTOOTH=.FALSE.,
      XB=15.306,15.608,11.415,12.617,30.849,31.751, /
&OBST ID='F4 roof big_14', SURF_ID='roof.001', SAWTOOTH=.FALSE.,
      XB=-15.294,-14.692,7.815,9.317,30.849,32.651, /
&OBST ID='F4 roof big_15', SURF_ID='roof.001', SAWTOOTH=.FALSE.,
      XB=-14.094,-13.492,22.815,23.117,30.849,31.151, /
&OBST ID='F4 roof big_16', SURF_ID='roof.001', SAWTOOTH=.FALSE.,
      XB=-12.294,-11.992,-14.685,-14.083,30.849,35.051, /
&OBST ID='F4 roof big_17', SURF_ID='roof.001', SAWTOOTH=.FALSE.,
      XB=14.706,15.008,9.615,10.517,30.849,33.251, /
&OBST ID='F4 roof big_18', SURF_ID='roof.001', SAWTOOTH=.FALSE.,
      XB=-10.794,-10.192,-13.185,-12.283,30.849,36.851, /
&OBST ID='F4 roof big_19', SURF_ID='roof.001', SAWTOOTH=.FALSE.,
      XB=-3.894,-3.592,7.515,8.117,30.849,32.651, /
! ... 3114 like lines cut
! F4 roof towers, from voxelization (298 voxels, voxel size is 0.300), in 0.504 s
&OBST ID='F4 roof towers_0', SURF_ID='roof.002', SAWTOOTH=.FALSE.,
      XB=-18.420,-18.118,4.358,4.660,34.849,39.351, /
&OBST ID='F4 roof towers_1', SURF_ID='roof.002', SAWTOOTH=.FALSE.,
      XB=-16.020,-15.718,1.658,3.160,34.849,36.051, /
&OBST ID='F4 roof towers_2', SURF_ID='roof.002', SAWTOOTH=.FALSE.,
      XB=-15.120,-14.818,5.858,6.160,34.849,35.751, /
&OBST ID='F4 roof towers_3', SURF_ID='roof.002', SAWTOOTH=.FALSE.,
      XB=18.180,18.482,-2.542,-1.940,34.849,38.751, /
&OBST ID='F4 roof towers_4', SURF_ID='roof.002', SAWTOOTH=.FALSE.,
      XB=-16.320,-16.018,4.358,5.260,34.849,37.251, /
&OBST ID='F4 roof towers_5', SURF_ID='roof.002', SAWTOOTH=.FALSE.,
      XB=4.980,5.282,-20.842,-17.840,34.849,35.151, /
&OBST ID='F4 roof towers_6', SURF_ID='roof.002', SAWTOOTH=.FALSE.,
      XB=20.580,21.182,1.658,1.960,34.849,35.451, /
&OBST ID='F4 roof towers_7', SURF_ID='roof.002', SAWTOOTH=.FALSE.,
      XB=-17.220,-16.918,3.758,4.360,34.849,39.351, /
&OBST ID='F4 roof towers_8', SURF_ID='roof.002', SAWTOOTH=.FALSE.,
      XB=-16.320,-16.018,3.458,4.360,34.849,36.951, /
&OBST ID='F4 roof towers_9', SURF_ID='roof.002', SAWTOOTH=.FALSE.,
      XB=19.980,20.282,-2.542,-1.040,34.849,38.451, /
&OBST ID='F4 roof towers_10', SURF_ID='roof.002', SAWTOOTH=.FALSE.,
      XB=17.880,18.182,-1.042,-0.440,34.849,38.451, /
&OBST ID='F4 roof towers_11', SURF_ID='roof.002', SAWTOOTH=.FALSE.,
      XB=0.480,0.782,-19.642,-18.740,34.849,38.751, /
&OBST ID='F4 roof towers_12', SURF_ID='roof.002', SAWTOOTH=.FALSE.,
      XB=4.080,4.382,-21.742,-19.940,34.849,36.051, /
&OBST ID='F4 roof towers_13', SURF_ID='roof.002', SAWTOOTH=.FALSE.,
      XB=1.980,2.282,-19.942,-19.640,34.849,39.951, /
&OBST ID='F4 roof towers_14', SURF_ID='roof.002', SAWTOOTH=.FALSE.,
      XB=2.580,2.882,-19.342,-19.040,34.849,39.051, /
&OBST ID='F4 roof towers_15', SURF_ID='roof.002', SAWTOOTH=.FALSE.,
      XB=2.880,3.182,-19.342,-19.040,34.849,38.451, /
&OBST ID='F4 roof towers_16', SURF_ID='roof.002', SAWTOOTH=.FALSE.,
      XB=-17.820,-17.218,3.158,3.460,34.849,39.351, /
&OBST ID='F4 roof towers_17', SURF_ID='roof.002', SAWTOOTH=.FALSE.,
      XB=0.480,0.782,-20.242,-19.640,34.849,39.051, /
&OBST ID='F4 roof towers_18', SURF_ID='roof.002', SAWTOOTH=.FALSE.,
      XB=-18.720,-17.218,6.458,6.760,34.849,36.051, /
&OBST ID='F4 roof towers_19', SURF_ID='roof.002', SAWTOOTH=.FALSE.,
      XB=-19.920,-19.018,7.358,7.660,34.849,35.451, /
! ... 556 like lines cut
! F4 tower1, from voxelization (5 voxels, voxel size is 0.300), in 0.135 s
&OBST ID='F4 tower1_0', SURF_ID='wall.002', SAWTOOTH=.FALSE.,
      XB=-1.112,4.590,-21.141,-17.839,30.999,34.901, /
&OBST ID='F4 tower1_1', SURF_ID='wall.002', SAWTOOTH=.FALSE.,
      XB=3.688,4.290,-21.741,-21.439,30.999,34.901, /
&OBST ID='F4 tower1_2', SURF_ID='wall.002', SAWTOOTH=.FALSE.,
      XB=-1.112,-0.210,-17.541,-17.239,30.999,34.901, /
&OBST ID='F4 tower1_3', SURF_ID='wall.002', SAWTOOTH=.FALSE.,
      XB=-1.112,3.390,-17.841,-17.539,30.999,34.901, /
&OBST ID='F4 tower1_4', SURF_ID='wall.002', SAWTOOTH=.FALSE.,
      XB=0.388,4.290,-21.441,-21.139,30.999,34.901, /
! F4 tower2, from voxelization (6 voxels, voxel size is 0.300), in 0.144 s
&OBST ID='F4 tower2_0', SURF_ID='wall.002', SAWTOOTH=.FALSE.,
      XB=16.810,21.012,-0.205,0.997,30.999,34.901, /
&OBST ID='F4 tower2_1', SURF_ID='wall.002', SAWTOOTH=.FALSE.,
      XB=17.110,21.012,-3.205,-0.203,30.999,34.901, /
&OBST ID='F4 tower2_2', SURF_ID='wall.002', SAWTOOTH=.FALSE.,
      XB=17.710,21.012,0.995,1.297,30.999,34.901, /
&OBST ID='F4 tower2_3', SURF_ID='wall.002', SAWTOOTH=.FALSE.,
      XB=17.110,21.312,-4.405,-3.203,30.999,34.901, /
&OBST ID='F4 tower2_4', SURF_ID='wall.002', SAWTOOTH=.FALSE.,
      XB=17.110,21.012,-4.705,-4.403,30.999,34.901, /
&OBST ID='F4 tower2_5', SURF_ID='wall.002', SAWTOOTH=.FALSE.,
      XB=19.810,21.012,1.295,1.597,30.999,34.901, /
! F4 tower3, from voxelization (11 voxels, voxel size is 0.300), in 0.148 s
&OBST ID='F4 tower3_0', SURF_ID='wall.002', SAWTOOTH=.FALSE.,
      XB=-20.171,-15.369,2.832,3.734,30.999,34.901, /
&OBST ID='F4 tower3_1', SURF_ID='wall.002', SAWTOOTH=.FALSE.,
      XB=-19.871,-15.069,4.632,5.534,30.999,34.901, /
&OBST ID='F4 tower3_2', SURF_ID='wall.002', SAWTOOTH=.FALSE.,
      XB=-19.871,-15.369,3.732,4.634,30.999,34.901, /
&OBST ID='F4 tower3_3', SURF_ID='wall.002', SAWTOOTH=.FALSE.,
      XB=-19.271,-15.669,1.632,1.934,30.999,34.901, /
&OBST ID='F4 tower3_4', SURF_ID='wall.002', SAWTOOTH=.FALSE.,
      XB=-19.571,-15.069,5.532,6.134,30.999,34.901, /
&OBST ID='F4 tower3_5', SURF_ID='wall.002', SAWTOOTH=.FALSE.,
      XB=-19.571,-14.769,6.132,6.434,30.999,34.901, /
&OBST ID='F4 tower3_6', SURF_ID='wall.002', SAWTOOTH=.FALSE.,
      XB=-17.471,-15.669,1.332,1.634,30.999,34.901, /
&OBST ID='F4 tower3_7', SURF_ID='wall.002', SAWTOOTH=.FALSE.,
      XB=-20.471,-15.669,1.932,2.234,30.999,34.901, /
&OBST ID='F4 tower3_8', SURF_ID='wall.002', SAWTOOTH=.FALSE.,
      XB=-19.571,-15.669,6.432,6.734,30.999,34.901, /
&OBST ID='F4 tower3_9', SURF_ID='wall.002', SAWTOOTH=.FALSE.,
      XB=-19.571,-17.469,6.732,7.034,30.999,34.901, /
&OBST ID='F4 tower3_10', SURF_ID='wall.002', SAWTOOTH=.FALSE.,
      XB=-20.171,-15.669,2.232,2.834,30.999,34.901, /
! ST glasspane.001 s0, from bounding box, in 0.001 s
&OBST ID='ST glasspane.001 s0', SURF_ID='glass',
      XB=-15.947,-15.947,6.840,9.340,17.058,19.558, /
! ST glasspane.002 s0, from bounding box, in 0.001 s
&OBST ID='ST glasspane.002 s0', SURF_ID='glass',
      XB=-16.065,-16.065,6.946,9.446,19.696,22.196, /
! ST glasspane.003 s0, from bounding box, in 0.001 s
&OBST ID='ST glasspane.003 s0', SURF_ID='glass',
      XB=-16.035,-16.035,6.946,9.446,24.307,27.307, /
! ST glasspane.004 s0, from bounding box, in 0.001 s
&OBST ID='ST glasspane.004 s0', SURF_ID='glass',
      XB=-15.929,-15.928,6.946,9.446,29.201,30.701, /

!!! Evacuation


!!! Control logic and output

! F2 glasspane.027 break, from center point, in 0.000 s
&DEVC ID='F2 glasspane.027 break',
      QUANTITY='TEMPERATURE', SETPOINT=300., INITIAL_STATE=.TRUE., XYZ=-8.321,17.216,24.359, /
! F2 glasspane.028 break, from center point, in 0.000 s
&DEVC ID='F2 glasspane.028 break',
      QUANTITY='TEMPERATURE', SETPOINT=300., INITIAL_STATE=.TRUE., XYZ=-12.094,20.337,24.359, /
! F2 glasspane.030 break, from center point, in 0.000 s
&DEVC ID='F2 glasspane.030 break',
      QUANTITY='TEMPERATURE', SETPOINT=300., INITIAL_STATE=.TRUE., XYZ=-13.955,16.448,24.359, /
! F2 glasspane.031 break, from center point, in 0.000 s
&DEVC ID='F2 glasspane.031 break',
      QUANTITY='TEMPERATURE', SETPOINT=300., INITIAL_STATE=.TRUE., XYZ=-14.754,12.549,24.359, /
! OUT temp, from 11 faces, in 0.002 s
&SLCF QUANTITY='TEMPERATURE', VECTOR=.TRUE., PBX=-10.820, /
&SLCF QUANTITY='TEMPERATURE', VECTOR=.TRUE., PBX=1.741, /
&SLCF QUANTITY='TEMPERATURE', VECTOR=.TRUE., PBX=13.378, /
&SLCF QUANTITY='TEMPERATURE', VECTOR=.TRUE., PBY=-12.516, /
&SLCF QUANTITY='TEMPERATURE', VECTOR=.TRUE., PBY=0.046, /
&SLCF QUANTITY='TEMPERATURE', VECTOR=.TRUE., PBY=13.070, /
&SLCF QUANTITY='TEMPERATURE', VECTOR=.TRUE., PBZ=11.000, /
&SLCF QUANTITY='TEMPERATURE', VECTOR=.TRUE., PBZ=15.000, /
&SLCF QUANTITY='TEMPERATURE', VECTOR=.TRUE., PBZ=19.000, /
&SLCF QUANTITY='TEMPERATURE', VECTOR=.TRUE., PBZ=23.000, /
&SLCF QUANTITY='TEMPERATURE', VECTOR=.TRUE., PBZ=28.000, /
! OUT visibility, from 11 faces, in 0.003 s
&SLCF QUANTITY='VISIBILITY', PBX=-10.820, /
&SLCF QUANTITY='VISIBILITY', PBX=1.741, /
&SLCF QUANTITY='VISIBILITY', PBX=13.378, /
&SLCF QUANTITY='VISIBILITY', PBY=-12.516, /
&SLCF QUANTITY='VISIBILITY', PBY=0.046, /
&SLCF QUANTITY='VISIBILITY', PBY=13.070, /
&SLCF QUANTITY='VISIBILITY', PBZ=11.000, /
&SLCF QUANTITY='VISIBILITY', PBZ=15.000, /
&SLCF QUANTITY='VISIBILITY', PBZ=19.000, /
&SLCF QUANTITY='VISIBILITY', PBZ=23.000, /
&SLCF QUANTITY='VISIBILITY', PBZ=28.000, /

!!! Others


&TAIL /
! Generated in 82.439 s.
