! Generated by BlenderFDS
! Fri, 17 Dec 2010 09:55:09
! Voxel Size: 0.125, 0.124, 0.120

&HEAD CHID='uni-build-s1', TITLE='University building, scenario 1' /

! Start of header file
!!! General configuration

&TIME T_END=900.0 /

&REAC ID='polyurethane', SOOT_YIELD=0.1875, CO_YIELD=0.02775,
      C=1.0, H=1.75, O=0.25, N=0.065,
      HEAT_OF_COMBUSTION=25300., IDEAL=.TRUE. /
      Gas phase reaction: polyurethane flexible foam (means) from
      Tewarson SFPE Handbook 3rd ed,
      SFPE handbook table 3-4.14, p. 3-112.

&MATL ID='Gypsum plaster', CONDUCTIVITY=0.48,
      SPECIFIC_HEAT=0.84, DENSITY=1440. /
      Thermo-physical properties of gypsum plaster.

&PROP ID='acme smoke detector', QUANTITY='CHAMBER OBSCURATION',
      LENGTH=1.8, ACTIVATION_OBSCURATION=3.28 /
      
&ISOF QUANTITY='TEMPERATURE', VALUE(1)=60. /
&ISOF QUANTITY='VISIBILITY', VALUE(1)=10. /
&BNDF QUANTITY='ADIABATIC SURFACE TEMPERATURE' /
! End of header file

!!! Boundary conditions defs

&SURF ID='Glass pane', RGB=0,204,201, TRANSPARENCY=0.200 /
&SURF ID='Burner', RGB=204,0,3, HRRPUA=300.00, TAU_Q=-230.63, FYI='1500 kW on 5 m2, fast fire' /
&SURF ID='Gypsum wall', RGB=184,187,137, MATL_ID='Gypsum plaster', THICKNESS=0.03 /

!!! Computational domain

! IJK=84,125,54 (567000 cells, actual size 0.250, 0.248, 0.240)
&MESH ID='Domain 0', XB=-10.500,10.500,-14.817,16.183,0.000,12.968, IJK=84,125,54 /
! IJK=84,125,54 (567000 cells, actual size 0.250, 0.248, 0.240)
&MESH ID='Domain -1', XB=-31.500,-10.500,-14.817,16.183,0.000,12.968, IJK=84,125,54 /
! IJK=84,125,54 (567000 cells, actual size 0.250, 0.248, 0.240)
&MESH ID='Domain +1', XB=10.500,31.500,-14.817,16.183,0.000,12.968, IJK=84,125,54 /

!!! Geometry

&OBST ID='Burning object', XB=6.500,7.500,-1.500,-0.500,0.000,1.000, SURF_ID='Burner',
      FYI='5 m2 on fire' /
! Start object
&OBST ID='Internal stairs', XB=-2.062,-0.062,7.874,10.230,4.142,4.263, SURF_ID='Gypsum wall' /
&OBST ID='Internal stairs_1', XB=-2.062,-0.062,9.238,9.610,8.225,8.585, SURF_ID='Gypsum wall' /
&OBST ID='Internal stairs_2', XB=-2.062,-0.062,9.486,10.230,8.105,8.225, SURF_ID='Gypsum wall' /
&OBST ID='Internal stairs_3', XB=-2.062,-0.062,9.610,9.858,7.985,8.105, SURF_ID='Gypsum wall' /
&OBST ID='Internal stairs_4', XB=-2.062,-0.062,9.610,9.982,8.225,8.345, SURF_ID='Gypsum wall' /
&OBST ID='Internal stairs_5', XB=-2.062,-0.062,9.734,9.982,4.263,4.503, SURF_ID='Gypsum wall' /
&OBST ID='Internal stairs_6', XB=-2.062,-0.062,9.734,10.602,4.022,4.142, SURF_ID='Gypsum wall' /
&OBST ID='Internal stairs_7', XB=-2.062,-0.062,9.858,10.602,7.865,8.105, SURF_ID='Gypsum wall' /
&OBST ID='Internal stairs_8', XB=-2.062,-0.062,9.982,10.850,3.902,4.022, SURF_ID='Gypsum wall' /
&OBST ID='Internal stairs_9', XB=-2.062,-0.062,10.106,10.850,3.782,3.902, SURF_ID='Gypsum wall' /
&OBST ID='Internal stairs_10', XB=-2.062,-0.062,10.106,10.850,7.745,7.865, SURF_ID='Gypsum wall' /
&OBST ID='Internal stairs_11', XB=-2.062,-0.062,10.230,10.850,7.625,7.745, SURF_ID='Gypsum wall' /
&OBST ID='Internal stairs_12', XB=-2.062,-0.062,10.354,11.098,3.662,3.782, SURF_ID='Gypsum wall' /
&OBST ID='Internal stairs_13', XB=-2.062,-0.062,10.478,10.850,7.505,7.625, SURF_ID='Gypsum wall' /
&OBST ID='Internal stairs_14', XB=-2.062,-0.062,10.602,10.726,3.542,3.662, SURF_ID='Gypsum wall' /
&OBST ID='Internal stairs_15', XB=-2.062,-0.062,10.726,10.850,7.384,7.505, SURF_ID='Gypsum wall' /
&OBST ID='Internal stairs_16', XB=-2.062,-0.062,10.726,11.470,3.422,3.662, SURF_ID='Gypsum wall' /
&OBST ID='Internal stairs_17', XB=-2.062,-0.062,10.850,11.098,7.264,7.745, SURF_ID='Gypsum wall' /
&OBST ID='Internal stairs_18', XB=-2.062,-0.062,10.974,11.718,3.302,3.422, SURF_ID='Gypsum wall' /
&OBST ID='Internal stairs_19', XB=-2.062,-0.062,11.098,11.470,7.384,7.505, SURF_ID='Gypsum wall' /
&OBST ID='Internal stairs_20', XB=-2.062,-0.062,11.098,11.718,7.144,7.384, SURF_ID='Gypsum wall' /
! ... 59 like lines cut
! End object
! Start object
&OBST ID='External stairs', XB=-35.562,-33.688,1.426,1.922,0.060,0.300 /
&OBST ID='External stairs_1', XB=-35.562,-33.688,1.798,2.170,0.300,0.420 /
&OBST ID='External stairs_2', XB=-35.562,-33.688,2.046,2.294,0.420,0.660 /
&OBST ID='External stairs_3', XB=-35.562,-33.688,2.294,2.418,0.420,0.540 /
&OBST ID='External stairs_4', XB=-35.562,-33.688,2.294,2.790,0.540,0.780 /
&OBST ID='External stairs_5', XB=-35.562,-33.688,2.542,3.038,0.780,0.901 /
&OBST ID='External stairs_6', XB=-35.562,-33.688,2.914,3.162,0.901,1.141 /
&OBST ID='External stairs_7', XB=-35.562,-33.688,3.162,3.286,0.901,1.021 /
&OBST ID='External stairs_8', XB=-35.562,-33.688,3.162,3.534,1.021,1.261 /
&OBST ID='External stairs_9', XB=-35.562,-33.688,3.410,3.906,1.261,1.381 /
&OBST ID='External stairs_10', XB=-35.562,-33.688,3.782,4.030,1.381,1.621 /
&OBST ID='External stairs_11', XB=-35.562,-33.688,4.030,4.154,1.381,1.501 /
&OBST ID='External stairs_12', XB=-35.562,-33.688,4.030,4.402,1.501,1.741 /
&OBST ID='External stairs_13', XB=-35.562,-33.688,4.278,4.650,1.741,1.861 /
&OBST ID='External stairs_14', XB=-35.562,-33.688,4.526,5.022,1.861,1.981 /
&OBST ID='External stairs_15', XB=-35.562,-33.688,4.526,5.146,1.981,2.101 /
&OBST ID='External stairs_16', XB=-35.562,-33.688,4.898,5.146,2.101,2.221 /
&OBST ID='External stairs_17', XB=-35.562,-31.562,5.146,6.138,1.981,2.221 /
&OBST ID='External stairs_18', XB=-35.438,-31.688,6.138,6.262,1.981,2.221 /
&OBST ID='External stairs_19', XB=-35.312,-35.188,6.262,6.386,1.981,2.221 /
&OBST ID='External stairs_20', XB=-35.188,-35.062,6.262,6.510,1.981,2.221 /
! ... 82 like lines cut
! End object
! Start object
&OBST ID='Panels transparent', XB=-1.562,-1.438,-1.426,1.426,9.546,12.187, SURF_ID='Glass pane' /
&OBST ID='Panels transparent_1', XB=-1.562,1.562,-1.550,-1.426,9.546,12.187, SURF_ID='Glass pane' /
&OBST ID='Panels transparent_2', XB=-1.562,1.562,1.426,1.550,9.546,12.187, SURF_ID='Glass pane' /
&OBST ID='Panels transparent_3', XB=-1.438,1.438,-1.550,-1.426,12.187,12.307, SURF_ID='Glass pane' /
&OBST ID='Panels transparent_4', XB=-1.438,1.438,1.426,1.550,12.187,12.307, SURF_ID='Glass pane' /
&OBST ID='Panels transparent_5', XB=1.438,1.562,-1.426,1.426,9.546,12.187, SURF_ID='Glass pane' /
! End object
! Start object
&OBST ID='Fire doors', XB=-1.062,1.062,4.402,4.650,-0.060,2.221, SURF_ID='Gypsum wall',
      FYI='always closed' /
&OBST ID='Fire doors_1', XB=-1.062,1.062,4.402,4.650,4.383,6.664, SURF_ID='Gypsum wall',
      FYI='always closed' /
&OBST ID='Fire doors_2', XB=-1.062,1.062,7.750,7.998,-0.060,2.221, SURF_ID='Gypsum wall',
      FYI='always closed' /
&OBST ID='Fire doors_3', XB=-1.062,1.062,7.750,7.998,4.383,6.664, SURF_ID='Gypsum wall',
      FYI='always closed' /
! End object
! Start object
&OBST ID='Walls', XB=-30.312,-30.188,-13.826,-11.966,1.141,3.062, SURF_ID='Gypsum wall' /
&OBST ID='Walls_1', XB=-30.312,-30.188,-13.578,-11.966,-0.060,1.141, SURF_ID='Gypsum wall' /
&OBST ID='Walls_2', XB=-30.312,-30.188,-13.578,-11.966,3.062,3.182, SURF_ID='Gypsum wall' /
&OBST ID='Walls_3', XB=-30.312,-30.188,-13.578,-11.966,5.583,7.384, SURF_ID='Gypsum wall' /
&OBST ID='Walls_4', XB=-30.312,-30.188,-13.578,-3.038,4.383,5.583, SURF_ID='Gypsum wall' /
&OBST ID='Walls_5', XB=-30.312,-30.188,-13.578,-2.418,7.384,7.625, SURF_ID='Gypsum wall' /
&OBST ID='Walls_6', XB=-30.312,-30.188,-11.966,-2.046,2.942,3.182, SURF_ID='Gypsum wall' /
&OBST ID='Walls_7', XB=-30.312,-30.188,-7.998,-6.882,1.141,2.942, SURF_ID='Gypsum wall' /
&OBST ID='Walls_8', XB=-30.312,-30.188,-7.998,-6.882,5.583,7.384, SURF_ID='Gypsum wall' /
&OBST ID='Walls_9', XB=-30.312,-30.188,-7.998,-3.038,-0.060,1.141, SURF_ID='Gypsum wall' /
&OBST ID='Walls_10', XB=-30.312,-30.188,-3.038,-2.418,6.544,7.384, SURF_ID='Gypsum wall' /
&OBST ID='Walls_11', XB=-30.312,-30.188,-3.038,-2.046,2.101,2.942, SURF_ID='Gypsum wall' /
&OBST ID='Walls_12', XB=-30.312,-30.188,-3.038,-0.930,4.383,6.544, SURF_ID='Gypsum wall' /
&OBST ID='Walls_13', XB=-30.312,-30.188,-3.038,3.038,-0.060,2.101, SURF_ID='Gypsum wall' /
&OBST ID='Walls_14', XB=-30.312,-30.188,-1.798,1.798,2.101,3.182, SURF_ID='Gypsum wall' /
&OBST ID='Walls_15', XB=-30.312,-30.188,-1.302,-0.930,6.544,7.625, SURF_ID='Gypsum wall' /
&OBST ID='Walls_16', XB=-30.312,-30.188,-0.930,0.930,7.384,7.625, SURF_ID='Gypsum wall' /
&OBST ID='Walls_17', XB=-30.312,-30.188,0.930,1.302,4.383,7.625, SURF_ID='Gypsum wall' /
&OBST ID='Walls_18', XB=-30.312,-30.188,2.046,3.038,2.101,3.182, SURF_ID='Gypsum wall' /
&OBST ID='Walls_19', XB=-30.312,-30.188,2.418,3.038,5.583,7.384, SURF_ID='Gypsum wall' /
&OBST ID='Walls_20', XB=-30.312,-30.188,2.418,11.966,4.383,5.583, SURF_ID='Gypsum wall' /
! ... 718 like lines cut
! End object
! Start object
&OBST ID='Columns', XB=-30.312,-29.812,-13.702,-13.330,-0.060,3.182, SURF_ID='Gypsum wall' /
&OBST ID='Columns_1', XB=-30.312,-29.812,-13.702,-13.330,4.383,7.625, SURF_ID='Gypsum wall' /
&OBST ID='Columns_2', XB=-30.312,-29.812,13.330,13.826,-0.060,3.182, SURF_ID='Gypsum wall' /
&OBST ID='Columns_3', XB=-30.312,-29.812,13.330,13.826,4.383,7.625, SURF_ID='Gypsum wall' /
&OBST ID='Columns_4', XB=-30.188,-29.812,-1.674,-1.302,-0.060,3.182, SURF_ID='Gypsum wall' /
&OBST ID='Columns_5', XB=-30.188,-29.812,1.302,1.674,-0.060,3.182, SURF_ID='Gypsum wall' /
&OBST ID='Columns_6', XB=-25.312,-24.688,-2.294,-1.302,4.383,7.144, SURF_ID='Gypsum wall' /
&OBST ID='Columns_7', XB=-25.312,-24.688,1.302,2.294,4.383,7.144, SURF_ID='Gypsum wall' /
&OBST ID='Columns_8', XB=-25.188,-24.812,-13.702,-13.330,-0.060,3.182, SURF_ID='Gypsum wall' /
&OBST ID='Columns_9', XB=-25.188,-24.812,-13.702,-13.330,4.383,7.625, SURF_ID='Gypsum wall' /
&OBST ID='Columns_10', XB=-25.188,-24.812,-1.674,-1.302,-0.060,3.182, SURF_ID='Gypsum wall' /
&OBST ID='Columns_11', XB=-25.188,-24.812,1.302,1.674,-0.060,3.182, SURF_ID='Gypsum wall' /
&OBST ID='Columns_12', XB=-25.188,-24.812,13.330,13.826,-0.060,3.182, SURF_ID='Gypsum wall' /
&OBST ID='Columns_13', XB=-25.188,-24.812,13.330,13.826,4.383,7.625, SURF_ID='Gypsum wall' /
&OBST ID='Columns_14', XB=-20.312,-19.688,-2.294,-1.302,-0.060,2.702, SURF_ID='Gypsum wall' /
&OBST ID='Columns_15', XB=-20.312,-19.688,-2.294,-1.302,4.383,7.144, SURF_ID='Gypsum wall' /
&OBST ID='Columns_16', XB=-20.312,-19.688,1.302,2.294,-0.060,2.702, SURF_ID='Gypsum wall' /
&OBST ID='Columns_17', XB=-20.312,-19.688,1.302,2.294,4.383,7.144, SURF_ID='Gypsum wall' /
&OBST ID='Columns_18', XB=-20.188,-19.688,-13.702,-13.206,-0.060,3.182, SURF_ID='Gypsum wall' /
&OBST ID='Columns_19', XB=-20.188,-19.688,-13.702,-13.206,4.383,7.625, SURF_ID='Gypsum wall' /
&OBST ID='Columns_20', XB=-20.188,-19.688,13.330,13.826,-0.060,3.182, SURF_ID='Gypsum wall' /
! ... 77 like lines cut
! End object
! Start object
&OBST ID='Walls stairs', XB=-0.188,0.188,9.238,9.610,4.383,4.503, SURF_ID='Gypsum wall' /
&OBST ID='Walls stairs_1', XB=-0.188,0.188,9.238,10.602,4.503,5.103, SURF_ID='Gypsum wall' /
&OBST ID='Walls stairs_2', XB=-0.188,0.188,9.238,11.718,5.103,5.223, SURF_ID='Gypsum wall' /
&OBST ID='Walls stairs_3', XB=-0.188,0.188,9.238,11.842,5.223,7.024, SURF_ID='Gypsum wall' /
&OBST ID='Walls stairs_4', XB=-0.188,0.188,9.486,9.610,7.865,8.345, SURF_ID='Gypsum wall' /
&OBST ID='Walls stairs_5', XB=-0.188,0.188,9.486,10.354,7.024,7.865, SURF_ID='Gypsum wall' /
&OBST ID='Walls stairs_6', XB=-0.188,0.188,9.610,9.734,8.105,8.225, SURF_ID='Gypsum wall' /
&OBST ID='Walls stairs_7', XB=-0.188,0.188,9.610,9.982,4.142,4.263, SURF_ID='Gypsum wall' /
&OBST ID='Walls stairs_8', XB=-0.188,0.188,9.610,9.982,7.865,8.105, SURF_ID='Gypsum wall' /
&OBST ID='Walls stairs_9', XB=-0.188,0.188,9.610,10.230,4.263,4.503, SURF_ID='Gypsum wall' /
&OBST ID='Walls stairs_10', XB=-0.188,0.188,9.982,10.230,7.865,7.985, SURF_ID='Gypsum wall' /
&OBST ID='Walls stairs_11', XB=-0.188,0.188,10.230,10.478,4.383,4.503, SURF_ID='Gypsum wall' /
&OBST ID='Walls stairs_12', XB=-0.188,0.188,10.354,10.602,7.625,7.745, SURF_ID='Gypsum wall' /
&OBST ID='Walls stairs_13', XB=-0.188,0.188,10.354,10.850,7.505,7.625, SURF_ID='Gypsum wall' /
&OBST ID='Walls stairs_14', XB=-0.188,0.188,10.354,10.974,7.384,7.505, SURF_ID='Gypsum wall' /
&OBST ID='Walls stairs_15', XB=-0.188,0.188,10.354,11.222,7.024,7.384, SURF_ID='Gypsum wall' /
&OBST ID='Walls stairs_16', XB=-0.188,0.188,10.602,10.850,4.623,5.103, SURF_ID='Gypsum wall' /
&OBST ID='Walls stairs_17', XB=-0.188,0.188,10.850,11.098,4.743,4.863, SURF_ID='Gypsum wall' /
&OBST ID='Walls stairs_18', XB=-0.188,0.188,10.850,11.222,4.863,4.983, SURF_ID='Gypsum wall' /
&OBST ID='Walls stairs_19', XB=-0.188,0.188,10.850,11.470,4.983,5.103, SURF_ID='Gypsum wall' /
&OBST ID='Walls stairs_20', XB=-0.188,0.188,11.222,11.346,7.024,7.264, SURF_ID='Gypsum wall' /
! ... 18 like lines cut
! End object
! Start object
&OBST ID='Floors', XB=-30.312,-2.062,-2.046,1.178,3.062,4.503, SURF_ID='Gypsum wall' /
&OBST ID='Floors_1', XB=-30.312,-1.938,1.178,9.610,4.263,4.503, SURF_ID='Gypsum wall' /
&OBST ID='Floors_2', XB=-30.312,-1.938,9.362,13.826,7.505,8.585, SURF_ID='Gypsum wall' /
&OBST ID='Floors_3', XB=-30.312,-1.938,9.610,13.826,3.062,4.503, SURF_ID='Gypsum wall' /
&OBST ID='Floors_4', XB=-30.312,-1.812,1.178,9.610,3.062,4.263, SURF_ID='Gypsum wall' /
&OBST ID='Floors_5', XB=-30.312,-1.438,-1.426,1.426,7.384,8.585, SURF_ID='Gypsum wall' /
&OBST ID='Floors_6', XB=-30.312,30.312,-13.826,-2.046,3.062,4.503, SURF_ID='Gypsum wall' /
&OBST ID='Floors_7', XB=-30.312,30.312,-13.826,-1.426,7.505,8.585, SURF_ID='Gypsum wall' /
&OBST ID='Floors_8', XB=-30.312,30.312,1.426,9.362,7.505,8.585, SURF_ID='Gypsum wall' /
&OBST ID='Floors_9', XB=-29.812,-3.562,1.426,2.294,7.024,7.505, SURF_ID='Gypsum wall' /
&OBST ID='Floors_10', XB=-29.812,-1.438,-1.426,1.426,7.024,7.384, SURF_ID='Gypsum wall' /
&OBST ID='Floors_11', XB=-29.812,29.812,-2.294,-1.426,7.024,7.505, SURF_ID='Gypsum wall' /
&OBST ID='Floors_12', XB=-21.938,-2.062,-1.054,2.294,2.582,3.062, SURF_ID='Gypsum wall' /
&OBST ID='Floors_13', XB=-21.938,-1.938,-2.294,-1.054,2.582,3.062, SURF_ID='Gypsum wall' /
&OBST ID='Floors_14', XB=-18.938,-18.562,-2.418,-2.294,7.024,7.505, SURF_ID='Gypsum wall' /
&OBST ID='Floors_15', XB=-18.938,-16.062,2.294,2.418,7.024,7.505, SURF_ID='Gypsum wall' /
&OBST ID='Floors_16', XB=-18.812,-18.688,-2.542,-2.418,7.024,7.505, SURF_ID='Gypsum wall' /
&OBST ID='Floors_17', XB=-18.812,-18.688,2.418,2.542,7.024,7.505, SURF_ID='Gypsum wall' /
&OBST ID='Floors_18', XB=-18.688,-18.562,-2.666,-2.418,7.024,7.505, SURF_ID='Gypsum wall' /
&OBST ID='Floors_19', XB=-18.688,-18.562,2.418,2.666,7.024,7.505, SURF_ID='Gypsum wall' /
&OBST ID='Floors_20', XB=-18.562,-18.438,-2.790,-2.294,7.024,7.505, SURF_ID='Gypsum wall' /
! ... 140 like lines cut
! End object
! Start object
&OBST ID='Roof transparent', XB=-1.562,-1.312,-1.550,1.550,12.067,12.187, SURF_ID='Glass pane',
      SAWTOOTH=.False., DEVC_ID='Roof break' /
&OBST ID='Roof transparent_1', XB=-1.562,1.562,-1.550,1.550,12.187,12.307, SURF_ID='Glass pane',
      SAWTOOTH=.False., DEVC_ID='Roof break' /
&OBST ID='Roof transparent_2', XB=-1.312,-1.188,-1.550,-1.178,12.307,12.427, SURF_ID='Glass pane',
      SAWTOOTH=.False., DEVC_ID='Roof break' /
&OBST ID='Roof transparent_3', XB=-1.312,-1.188,1.178,1.550,12.307,12.427, SURF_ID='Glass pane',
      SAWTOOTH=.False., DEVC_ID='Roof break' /
&OBST ID='Roof transparent_4', XB=-1.188,1.188,-1.550,1.550,12.307,12.427, SURF_ID='Glass pane',
      SAWTOOTH=.False., DEVC_ID='Roof break' /
&OBST ID='Roof transparent_5', XB=1.188,1.312,-1.550,-1.302,12.307,12.427, SURF_ID='Glass pane',
      SAWTOOTH=.False., DEVC_ID='Roof break' /
&OBST ID='Roof transparent_6', XB=1.188,1.312,1.178,1.550,12.307,12.427, SURF_ID='Glass pane',
      SAWTOOTH=.False., DEVC_ID='Roof break' /
&OBST ID='Roof transparent_7', XB=1.312,1.562,-1.550,1.550,12.067,12.187, SURF_ID='Glass pane',
      SAWTOOTH=.False., DEVC_ID='Roof break' /
! End object
! Start object
&OBST ID='Window panes', XB=-30.312,-30.188,-12.090,-10.850,2.221,3.062, SURF_ID='Glass pane' /
&OBST ID='Window panes_1', XB=-30.312,-30.188,-12.090,-7.874,5.463,7.505, SURF_ID='Glass pane' /
&OBST ID='Window panes_2', XB=-30.312,-30.188,-10.850,-7.874,-0.060,3.062, SURF_ID='Glass pane' /
&OBST ID='Window panes_3', XB=-30.312,-30.188,-7.006,-2.914,1.021,3.062, SURF_ID='Glass pane' /
&OBST ID='Window panes_4', XB=-30.312,-30.188,-7.006,-2.914,5.463,7.505, SURF_ID='Glass pane' /
&OBST ID='Window panes_5', XB=-30.312,-30.188,2.914,7.006,1.021,3.062, SURF_ID='Glass pane' /
&OBST ID='Window panes_6', XB=-30.312,-30.188,2.914,7.006,5.463,7.505, SURF_ID='Glass pane' /
&OBST ID='Window panes_7', XB=-30.312,-30.188,7.998,10.850,-0.060,3.062, SURF_ID='Glass pane' /
&OBST ID='Window panes_8', XB=-30.312,-30.188,7.998,12.090,5.463,7.505, SURF_ID='Glass pane' /
&OBST ID='Window panes_9', XB=-30.312,-30.188,10.850,12.090,2.221,3.062, SURF_ID='Glass pane' /
&OBST ID='Window panes_10', XB=-29.562,-25.438,-13.826,-13.578,1.021,3.062, SURF_ID='Glass pane' /
&OBST ID='Window panes_11', XB=-29.562,-25.438,-13.826,-13.578,5.463,7.505, SURF_ID='Glass pane' /
&OBST ID='Window panes_12', XB=-29.562,-25.438,13.702,13.826,1.021,3.062, SURF_ID='Glass pane' /
&OBST ID='Window panes_13', XB=-29.562,-25.438,13.702,13.826,5.463,7.505, SURF_ID='Glass pane' /
&OBST ID='Window panes_14', XB=-24.562,-20.438,-13.826,-13.578,1.021,3.062, SURF_ID='Glass pane' /
&OBST ID='Window panes_15', XB=-24.562,-20.438,-13.826,-13.578,5.463,7.505, SURF_ID='Glass pane' /
&OBST ID='Window panes_16', XB=-24.562,-20.438,13.702,13.826,1.021,3.062, SURF_ID='Glass pane' /
&OBST ID='Window panes_17', XB=-24.562,-20.438,13.702,13.826,5.463,7.505, SURF_ID='Glass pane' /
&OBST ID='Window panes_18', XB=-19.562,-15.438,-13.826,-13.578,1.021,3.062, SURF_ID='Glass pane' /
&OBST ID='Window panes_19', XB=-19.562,-15.438,-13.826,-13.578,5.463,7.505, SURF_ID='Glass pane' /
&OBST ID='Window panes_20', XB=-19.562,-15.438,13.702,13.826,1.021,3.062, SURF_ID='Glass pane' /
! ... 55 like lines cut
! End object
! Start object
&VENT ID='External BC', PBX=-31.500, SURF_ID='OPEN' /
&VENT ID='External BC_1', PBX=31.500, SURF_ID='OPEN' /
&VENT ID='External BC_2', PBY=-14.817, SURF_ID='OPEN' /
&VENT ID='External BC_3', PBY=16.183, SURF_ID='OPEN' /
&VENT ID='External BC_4', PBZ=12.968, SURF_ID='OPEN' /
! End object
! Start object
&OBST ID='Roof', XB=-5.312,-4.938,-4.650,13.826,11.227,11.347, SURF_ID='Gypsum wall',
      SAWTOOTH=.False. /
&OBST ID='Roof_1', XB=-5.312,-4.562,-4.650,13.826,11.347,11.467, SURF_ID='Gypsum wall',
      SAWTOOTH=.False. /
&OBST ID='Roof_2', XB=-4.938,-4.812,13.702,13.826,11.227,11.347, SURF_ID='Gypsum wall',
      SAWTOOTH=.False. /
&OBST ID='Roof_3', XB=-4.938,-4.188,-4.650,13.826,11.467,11.587, SURF_ID='Gypsum wall',
      SAWTOOTH=.False. /
&OBST ID='Roof_4', XB=-4.688,-3.812,-2.170,13.330,11.587,11.707, SURF_ID='Gypsum wall',
      SAWTOOTH=.False. /
&OBST ID='Roof_5', XB=-4.562,-3.812,-4.650,-2.170,11.587,11.707, SURF_ID='Gypsum wall',
      SAWTOOTH=.False. /
&OBST ID='Roof_6', XB=-4.562,-3.812,13.330,13.826,11.587,11.707, SURF_ID='Gypsum wall',
      SAWTOOTH=.False. /
&OBST ID='Roof_7', XB=-4.312,-3.312,-4.650,13.702,11.707,11.827, SURF_ID='Gypsum wall',
      SAWTOOTH=.False. /
&OBST ID='Roof_8', XB=-4.188,-3.312,13.702,13.826,11.707,11.827, SURF_ID='Gypsum wall',
      SAWTOOTH=.False. /
&OBST ID='Roof_9', XB=-3.938,-3.812,13.454,13.826,11.827,11.947, SURF_ID='Gypsum wall',
      SAWTOOTH=.False. /
&OBST ID='Roof_10', XB=-3.812,-2.812,-4.650,13.826,11.827,11.947, SURF_ID='Gypsum wall',
      SAWTOOTH=.False. /
&OBST ID='Roof_11', XB=-3.438,-2.438,-2.542,-2.046,11.947,12.067, SURF_ID='Gypsum wall',
      SAWTOOTH=.False. /
&OBST ID='Roof_12', XB=-3.438,-2.312,-4.650,-2.542,11.947,12.067, SURF_ID='Gypsum wall',
      SAWTOOTH=.False. /
&OBST ID='Roof_13', XB=-3.438,-2.188,-2.046,12.958,11.947,12.067, SURF_ID='Gypsum wall',
      SAWTOOTH=.False. /
&OBST ID='Roof_14', XB=-3.312,-2.188,12.958,13.826,11.947,12.067, SURF_ID='Gypsum wall',
      SAWTOOTH=.False. /
&OBST ID='Roof_15', XB=-2.938,-2.188,-4.650,12.958,12.067,12.187, SURF_ID='Gypsum wall',
      SAWTOOTH=.False. /
&OBST ID='Roof_16', XB=-2.812,-2.688,12.958,13.826,11.827,11.947, SURF_ID='Gypsum wall',
      SAWTOOTH=.False. /
&OBST ID='Roof_17', XB=-2.812,-2.188,12.958,13.826,12.067,12.187, SURF_ID='Gypsum wall',
      SAWTOOTH=.False. /
&OBST ID='Roof_18', XB=-2.438,-2.312,-2.666,-2.046,12.187,12.427, SURF_ID='Gypsum wall',
      SAWTOOTH=.False. /
&OBST ID='Roof_19', XB=-2.438,-2.312,-2.170,-2.046,11.947,12.067, SURF_ID='Gypsum wall',
      SAWTOOTH=.False. /
&OBST ID='Roof_20', XB=-2.312,-2.188,-4.650,-2.790,11.947,12.067, SURF_ID='Gypsum wall',
      SAWTOOTH=.False. /
&OBST ID='Roof_21', XB=-2.312,-2.188,-2.914,-2.790,12.187,12.427, SURF_ID='Gypsum wall',
      SAWTOOTH=.False. /
&OBST ID='Roof_22', XB=-2.312,-2.188,13.578,13.826,12.187,12.307, SURF_ID='Gypsum wall',
      SAWTOOTH=.False. /
&OBST ID='Roof_23', XB=-2.188,-1.938,-2.046,-1.922,11.947,12.067, SURF_ID='Gypsum wall',
      SAWTOOTH=.False. /
&OBST ID='Roof_24', XB=-2.188,-1.438,-4.650,1.550,12.067,12.307, SURF_ID='Gypsum wall',
      SAWTOOTH=.False. /
&OBST ID='Roof_25', XB=-2.188,-1.312,1.550,15.438,12.067,12.307, SURF_ID='Gypsum wall',
      SAWTOOTH=.False. /
&OBST ID='Roof_26', XB=-1.438,-1.312,-4.650,-4.030,12.067,12.187, SURF_ID='Gypsum wall',
      SAWTOOTH=.False. /
&OBST ID='Roof_27', XB=-1.438,-1.188,-4.030,-2.542,12.067,12.187, SURF_ID='Gypsum wall',
      SAWTOOTH=.False. /
&OBST ID='Roof_28', XB=-1.438,-0.938,-2.542,-1.798,12.067,12.187, SURF_ID='Gypsum wall',
      SAWTOOTH=.False. /
&OBST ID='Roof_29', XB=-1.438,-0.812,-1.674,-1.550,12.067,12.187, SURF_ID='Gypsum wall',
      SAWTOOTH=.False. /
&OBST ID='Roof_30', XB=-1.438,-0.688,-1.798,-1.674,12.067,12.187, SURF_ID='Gypsum wall',
      SAWTOOTH=.False. /
&OBST ID='Roof_31', XB=-1.438,2.188,-4.650,-1.550,12.187,12.307, SURF_ID='Gypsum wall',
      SAWTOOTH=.False. /
&OBST ID='Roof_32', XB=-1.312,-1.188,1.550,1.798,12.067,12.187, SURF_ID='Gypsum wall',
      SAWTOOTH=.False. /
&OBST ID='Roof_33', XB=-1.312,-1.188,14.198,15.438,12.307,12.427, SURF_ID='Gypsum wall',
      SAWTOOTH=.False. /
&OBST ID='Roof_34', XB=-1.312,2.188,1.550,15.438,12.187,12.307, SURF_ID='Gypsum wall',
      SAWTOOTH=.False. /
&OBST ID='Roof_35', XB=-1.188,-1.062,-3.286,-2.542,12.067,12.187, SURF_ID='Gypsum wall',
      SAWTOOTH=.False. /
&OBST ID='Roof_36', XB=-1.188,-0.938,-4.650,-3.782,12.307,12.427, SURF_ID='Gypsum wall',
      SAWTOOTH=.False. /
&OBST ID='Roof_37', XB=-1.188,1.188,2.790,15.438,12.307,12.427, SURF_ID='Gypsum wall',
      SAWTOOTH=.False. /
&OBST ID='Roof_38', XB=-1.062,-0.938,-3.782,-3.162,12.307,12.427, SURF_ID='Gypsum wall',
      SAWTOOTH=.False. /
&OBST ID='Roof_39', XB=-1.062,-0.688,-1.674,-1.550,12.307,12.427, SURF_ID='Gypsum wall',
      SAWTOOTH=.False. /
&OBST ID='Roof_40', XB=-1.062,0.938,1.674,1.922,12.307,12.427, SURF_ID='Gypsum wall',
      SAWTOOTH=.False. /
&OBST ID='Roof_41', XB=-1.062,1.062,1.922,2.790,12.307,12.427, SURF_ID='Gypsum wall',
      SAWTOOTH=.False. /
&OBST ID='Roof_42', XB=-0.938,-0.812,-1.922,-1.798,12.067,12.187, SURF_ID='Gypsum wall',
      SAWTOOTH=.False. /
&OBST ID='Roof_43', XB=-0.938,0.938,-4.650,-2.418,12.307,12.427, SURF_ID='Gypsum wall',
      SAWTOOTH=.False. /
&OBST ID='Roof_44', XB=-0.938,0.938,1.550,1.674,12.307,12.427, SURF_ID='Gypsum wall',
      SAWTOOTH=.False. /
&OBST ID='Roof_45', XB=-0.812,0.812,-2.418,-1.798,12.307,12.427, SURF_ID='Gypsum wall',
      SAWTOOTH=.False. /
&OBST ID='Roof_46', XB=-0.688,0.688,-1.798,-1.550,12.307,12.427, SURF_ID='Gypsum wall',
      SAWTOOTH=.False. /
&OBST ID='Roof_47', XB=-0.062,0.062,-1.550,-1.426,12.187,12.427, SURF_ID='Gypsum wall',
      SAWTOOTH=.False. /
&OBST ID='Roof_48', XB=0.688,1.062,-1.674,-1.550,12.307,12.427, SURF_ID='Gypsum wall',
      SAWTOOTH=.False. /
&OBST ID='Roof_49', XB=0.688,1.188,-1.798,-1.674,12.067,12.187, SURF_ID='Gypsum wall',
      SAWTOOTH=.False. /
&OBST ID='Roof_50', XB=0.812,0.938,-1.922,-1.798,12.067,12.187, SURF_ID='Gypsum wall',
      SAWTOOTH=.False. /
&OBST ID='Roof_51', XB=0.812,1.188,-1.674,-1.550,12.067,12.187, SURF_ID='Gypsum wall',
      SAWTOOTH=.False. /
&OBST ID='Roof_52', XB=0.938,1.062,-3.782,-3.162,12.307,12.427, SURF_ID='Gypsum wall',
      SAWTOOTH=.False. /
&OBST ID='Roof_53', XB=0.938,1.062,-2.542,-1.798,12.067,12.187, SURF_ID='Gypsum wall',
      SAWTOOTH=.False. /
&OBST ID='Roof_54', XB=0.938,1.188,-4.650,-3.782,12.307,12.427, SURF_ID='Gypsum wall',
      SAWTOOTH=.False. /
&OBST ID='Roof_55', XB=1.062,1.188,-3.286,-1.798,12.067,12.187, SURF_ID='Gypsum wall',
      SAWTOOTH=.False. /
&OBST ID='Roof_56', XB=1.188,1.312,1.550,1.922,12.067,12.187, SURF_ID='Gypsum wall',
      SAWTOOTH=.False. /
&OBST ID='Roof_57', XB=1.188,1.312,13.702,15.438,12.307,12.427, SURF_ID='Gypsum wall',
      SAWTOOTH=.False. /
&OBST ID='Roof_58', XB=1.188,1.438,-4.030,-1.550,12.067,12.187, SURF_ID='Gypsum wall',
      SAWTOOTH=.False. /
&OBST ID='Roof_59', XB=1.312,1.438,-4.650,-4.030,12.067,12.187, SURF_ID='Gypsum wall',
      SAWTOOTH=.False. /
&OBST ID='Roof_60', XB=1.312,2.188,13.826,15.438,12.067,12.187, SURF_ID='Gypsum wall',
      SAWTOOTH=.False. /
&OBST ID='Roof_61', XB=1.312,2.812,12.958,13.826,12.067,12.187, SURF_ID='Gypsum wall',
      SAWTOOTH=.False. /
&OBST ID='Roof_62', XB=1.312,2.938,1.550,12.958,12.067,12.187, SURF_ID='Gypsum wall',
      SAWTOOTH=.False. /
&OBST ID='Roof_63', XB=1.438,2.188,-1.550,1.550,12.187,12.307, SURF_ID='Gypsum wall',
      SAWTOOTH=.False. /
&OBST ID='Roof_64', XB=1.438,2.938,-4.650,1.550,12.067,12.187, SURF_ID='Gypsum wall',
      SAWTOOTH=.False. /
&OBST ID='Roof_65', XB=1.938,2.188,-2.046,-1.922,11.947,12.067, SURF_ID='Gypsum wall',
      SAWTOOTH=.False. /
&OBST ID='Roof_66', XB=2.188,2.312,-2.914,-2.790,12.187,12.427, SURF_ID='Gypsum wall',
      SAWTOOTH=.False. /
&OBST ID='Roof_67', XB=2.188,2.312,13.578,13.826,12.187,12.307, SURF_ID='Gypsum wall',
      SAWTOOTH=.False. /
&OBST ID='Roof_68', XB=2.188,3.312,12.958,13.826,11.947,12.067, SURF_ID='Gypsum wall',
      SAWTOOTH=.False. /
&OBST ID='Roof_69', XB=2.188,3.438,-4.650,-2.666,11.947,12.067, SURF_ID='Gypsum wall',
      SAWTOOTH=.False. /
&OBST ID='Roof_70', XB=2.188,3.438,-2.170,12.958,11.947,12.067, SURF_ID='Gypsum wall',
      SAWTOOTH=.False. /
&OBST ID='Roof_71', XB=2.312,2.438,-2.666,-2.542,11.947,12.067, SURF_ID='Gypsum wall',
      SAWTOOTH=.False. /
&OBST ID='Roof_72', XB=2.312,2.438,-2.666,-2.046,12.187,12.427, SURF_ID='Gypsum wall',
      SAWTOOTH=.False. /
&OBST ID='Roof_73', XB=2.438,3.438,-2.666,-2.170,11.947,12.067, SURF_ID='Gypsum wall',
      SAWTOOTH=.False. /
&OBST ID='Roof_74', XB=2.688,2.812,13.082,13.826,11.827,11.947, SURF_ID='Gypsum wall',
      SAWTOOTH=.False. /
&OBST ID='Roof_75', XB=2.812,3.812,-4.650,13.826,11.827,11.947, SURF_ID='Gypsum wall',
      SAWTOOTH=.False. /
&OBST ID='Roof_76', XB=3.312,4.188,13.330,13.826,11.707,11.827, SURF_ID='Gypsum wall',
      SAWTOOTH=.False. /
&OBST ID='Roof_77', XB=3.312,4.312,-4.650,13.330,11.707,11.827, SURF_ID='Gypsum wall',
      SAWTOOTH=.False. /
&OBST ID='Roof_78', XB=3.812,3.938,13.454,13.826,11.827,11.947, SURF_ID='Gypsum wall',
      SAWTOOTH=.False. /
&OBST ID='Roof_79', XB=3.812,4.562,-4.650,13.826,11.587,11.707, SURF_ID='Gypsum wall',
      SAWTOOTH=.False. /
&OBST ID='Roof_80', XB=4.188,4.938,-4.650,13.826,11.467,11.587, SURF_ID='Gypsum wall',
      SAWTOOTH=.False. /
&OBST ID='Roof_81', XB=4.562,5.312,-4.650,13.826,11.347,11.467, SURF_ID='Gypsum wall',
      SAWTOOTH=.False. /
&OBST ID='Roof_82', XB=4.812,4.938,12.958,13.826,11.227,11.347, SURF_ID='Gypsum wall',
      SAWTOOTH=.False. /
&OBST ID='Roof_83', XB=4.938,5.312,-4.650,13.826,11.227,11.347, SURF_ID='Gypsum wall',
      SAWTOOTH=.False. /
! End object

!!! Evacuation


!!! Control logic and output

&DEVC ID='Smoke detector', XYZ=5.000,0.000,2.500, PROP_ID='acme smoke detector' /
! Start object
&SLCF QUANTITY='VISIBILITY', PBX=0.000 /
&SLCF QUANTITY='VISIBILITY', PBY=-0.000 /
! End object
&DEVC ID='Roof break', XYZ=0.000,0.000,12.027,
      QUANTITY='TEMPERATURE',  SETPOINT=150., INITIAL_STATE=.TRUE., FYI='Break the roof' /
! Start object
&SLCF QUANTITY='TEMPERATURE', VECTOR=.TRUE., PBX=0.000 /
&SLCF QUANTITY='TEMPERATURE', VECTOR=.TRUE., PBY=-0.000 /
! End object

!!! Others


&TAIL  /
