! Generated by BlenderFDS 3.0.0 on Blender 2.69 (sub 0)
! Date: Fri, 20 Dec 2013, 16:41:17
! File: /home/egissi/Documenti/Argomenti/BlenderFDS/svn/trunk/examples/uni-build/uni-build_02.blend

! HEAD: Free text 'Free text' appended
&HEAD CHID='uni-build_s1' TITLE='University building, scenario 1' /
&MATL ID='Gypsum plaster', CONDUCTIVITY=0.48,
      SPECIFIC_HEAT=0.84, DENSITY=1440. /
      Thermo-physical properties of gypsum plaster.

&PROP ID='acme smoke detector', QUANTITY='CHAMBER OBSCURATION',
      LENGTH=1.8, ACTIVATION_OBSCURATION=3.28 /
      
&ISOF QUANTITY='TEMPERATURE', VALUE(1)=60. /
&ISOF QUANTITY='VISIBILITY', VALUE(1)=10. /
&BNDF QUANTITY='ADIABATIC SURFACE TEMPERATURE' /
! End of free text
&TIME T_BEGIN=0.0 T_END=600.0 /
&REAC FUEL='polyurethane' FYI='Polyurethane flexible foam (means), Tewarson SFPE Handbook 3rd ed, table 3-4.14, p. 3-112.' CO_YIELD=0.027750 SOOT_YIELD=0.187500 HEAT_OF_COMBUSTION=25300.0 IDEAL=.TRUE. C=1 H=1.75 O=0.25 N=0.065 /
&DUMP RENDER_FILE='uni-build_s1.GE1' /
! SURF: TAU_Q: HRR(t) has a t² ramp
&SURF ID='Burner' FYI='Est.d area 5.00 m², HRR max 1500 kW, fast t² ramp (US)' RGB=204,0,2 HRRPUA=300.000 TAU_Q=-178.9 /
&SURF ID='Glass pane' RGB=0,204,201 TRANSPARENCY=0.20 /
&SURF ID='Gypsum wall' RGB=184,186,136 /
! Building: group of namelists
! OBST: XB: 98 voxels, resolution 0.100 m, in 4 s (s:1 c:0 fb:0, g1:0, g2:0)
&OBST ID='Columns_0' XB=-25.250,-24.750,1.350,2.250,4.350,7.150 SURF_ID='Gypsum wall' /
&OBST ID='Columns_1' XB=-25.250,-24.750,-2.250,-1.350,4.350,7.150 SURF_ID='Gypsum wall' /
&OBST ID='Columns_2' XB=-5.150,-4.850,-13.750,-13.350,-0.050,3.150 SURF_ID='Gypsum wall' /
&OBST ID='Columns_3' XB=-5.150,-4.850,-13.750,-13.350,4.350,7.550 SURF_ID='Gypsum wall' /
&OBST ID='Columns_4' XB=-25.150,-24.850,-1.650,-1.350,-0.050,3.150 SURF_ID='Gypsum wall' /
&OBST ID='Columns_5' XB=-20.250,-19.750,-2.250,-1.350,-0.050,2.750 SURF_ID='Gypsum wall' /
&OBST ID='Columns_6' XB=-20.250,-19.750,-2.250,-1.350,4.350,7.150 SURF_ID='Gypsum wall' /
&OBST ID='Columns_7' XB=-10.250,-9.750,1.350,2.250,-0.050,2.750 SURF_ID='Gypsum wall' /
&OBST ID='Columns_8' XB=-10.250,-9.750,1.350,2.250,4.350,7.150 SURF_ID='Gypsum wall' /
&OBST ID='Columns_9' XB=-2.250,-2.050,13.350,13.750,-0.050,3.150 SURF_ID='Gypsum wall' /
&OBST ID='Columns_10' XB=-2.250,-2.050,13.350,13.750,4.350,7.550 SURF_ID='Gypsum wall' /
&OBST ID='Columns_11' XB=-10.250,-9.750,-2.250,-1.350,-0.050,2.750 SURF_ID='Gypsum wall' /
&OBST ID='Columns_12' XB=-10.250,-9.750,-2.250,-1.350,4.350,7.150 SURF_ID='Gypsum wall' /
&OBST ID='Columns_13' XB=14.750,15.250,1.350,2.250,-0.050,2.750 SURF_ID='Gypsum wall' /
&OBST ID='Columns_14' XB=14.750,15.250,1.350,2.250,4.350,7.150 SURF_ID='Gypsum wall' /
&OBST ID='Columns_15' XB=19.750,20.150,-2.250,-1.350,-0.050,2.750 SURF_ID='Gypsum wall' /
&OBST ID='Columns_16' XB=19.750,20.150,-2.250,-1.350,4.350,7.150 SURF_ID='Gypsum wall' /
&OBST ID='Columns_17' XB=-15.250,-14.750,-2.250,-1.350,-0.050,2.750 SURF_ID='Gypsum wall' /
&OBST ID='Columns_18' XB=-15.250,-14.750,-2.250,-1.350,4.350,7.150 SURF_ID='Gypsum wall' /
&OBST ID='Columns_19' XB=-20.050,-19.750,13.350,13.750,-0.050,3.150 SURF_ID='Gypsum wall' /
! ... 78 like lines cut
! OBST: XB: 93 voxels, resolution 0.100 m, in 0 s (s:0 c:0 fb:0, g1:0, g2:0)
&OBST ID='External stairs_0' XB=32.250,34.150,9.850,10.150,-0.050,0.050 SURF_ID='Gypsum wall' /
&OBST ID='External stairs_1' XB=-35.050,-32.250,6.550,6.650,2.050,2.150 SURF_ID='Gypsum wall' /
&OBST ID='External stairs_2' XB=-33.450,-31.550,1.250,1.550,4.150,4.250 SURF_ID='Gypsum wall' /
&OBST ID='External stairs_3' XB=32.250,34.150,1.250,1.550,4.150,4.250 SURF_ID='Gypsum wall' /
&OBST ID='External stairs_4' XB=32.250,34.150,7.450,7.750,1.250,1.350 SURF_ID='Gypsum wall' /
&OBST ID='External stairs_5' XB=-35.650,-33.750,4.950,5.250,2.050,2.150 SURF_ID='Gypsum wall' /
&OBST ID='External stairs_6' XB=-33.450,-31.550,4.950,5.250,2.050,2.150 SURF_ID='Gypsum wall' /
&OBST ID='External stairs_7' XB=-33.450,-31.550,1.550,1.850,3.950,4.050 SURF_ID='Gypsum wall' /
&OBST ID='External stairs_8' XB=32.250,34.150,1.550,1.850,3.950,4.050 SURF_ID='Gypsum wall' /
&OBST ID='External stairs_9' XB=-35.650,-33.750,2.650,2.950,0.750,0.850 SURF_ID='Gypsum wall' /
&OBST ID='External stairs_10' XB=32.250,34.150,6.250,6.550,1.950,2.050 SURF_ID='Gypsum wall' /
&OBST ID='External stairs_11' XB=-33.450,-30.250,0.050,1.050,4.350,4.450 SURF_ID='Gypsum wall' /
&OBST ID='External stairs_12' XB=30.250,34.150,0.150,0.950,4.350,4.450 SURF_ID='Gypsum wall' /
&OBST ID='External stairs_13' XB=-35.650,-33.750,2.950,3.250,0.950,1.050 SURF_ID='Gypsum wall' /
&OBST ID='External stairs_14' XB=-33.450,-31.550,4.050,4.350,2.550,2.650 SURF_ID='Gypsum wall' /
&OBST ID='External stairs_15' XB=32.250,34.150,4.050,4.350,2.550,2.650 SURF_ID='Gypsum wall' /
&OBST ID='External stairs_16' XB=-35.650,-33.750,4.350,4.650,1.750,1.850 SURF_ID='Gypsum wall' /
&OBST ID='External stairs_17' XB=-35.450,-31.850,6.150,6.250,2.050,2.150 SURF_ID='Gypsum wall' /
&OBST ID='External stairs_18' XB=32.250,34.150,5.950,6.250,2.050,2.150 SURF_ID='Gypsum wall' /
&OBST ID='External stairs_19' XB=-35.650,-33.750,2.150,2.450,0.450,0.550 SURF_ID='Gypsum wall' /
! ... 73 like lines cut
! OBST: XB: 98 voxels, resolution 0.100 m, in 1 s (s:0 c:0 fb:0, g1:0, g2:0)
&OBST ID='Internal stairs_0' XB=0.050,1.950,11.150,11.650,5.150,5.250 SURF_ID='Gypsum wall' /
&OBST ID='Internal stairs_1' XB=0.050,1.950,10.250,10.850,4.650,4.750 SURF_ID='Gypsum wall' /
&OBST ID='Internal stairs_2' XB=0.050,1.950,10.550,11.050,0.650,0.750 SURF_ID='Gypsum wall' /
&OBST ID='Internal stairs_3' XB=0.050,1.950,12.250,12.850,5.850,5.950 SURF_ID='Gypsum wall' /
&OBST ID='Internal stairs_4' XB=0.050,1.950,9.650,10.050,0.050,0.150 SURF_ID='Gypsum wall' /
&OBST ID='Internal stairs_5' XB=0.050,1.950,12.850,13.250,6.050,6.150 SURF_ID='Gypsum wall' /
&OBST ID='Internal stairs_6' XB=-1.950,-0.050,10.550,11.050,7.550,7.650 SURF_ID='Gypsum wall' /
&OBST ID='Internal stairs_7' XB=-1.950,-0.050,10.350,10.750,3.850,3.950 SURF_ID='Gypsum wall' /
&OBST ID='Internal stairs_8' XB=-1.950,-0.050,10.650,11.050,3.650,3.750 SURF_ID='Gypsum wall' /
&OBST ID='Internal stairs_9' XB=-1.950,-0.050,9.750,10.250,4.150,4.250 SURF_ID='Gypsum wall' /
&OBST ID='Internal stairs_10' XB=-1.950,1.950,13.150,13.850,6.250,6.450 SURF_ID='Gypsum wall' /
&OBST ID='Internal stairs_11' XB=-1.950,-1.850,7.850,9.950,4.250,4.350 SURF_ID='Gypsum wall' /
&OBST ID='Internal stairs_12' XB=1.850,1.950,7.850,9.950,4.250,4.350 SURF_ID='Gypsum wall' /
&OBST ID='Internal stairs_13' XB=0.050,1.950,9.950,10.150,4.250,4.350 SURF_ID='Gypsum wall' /
&OBST ID='Internal stairs_14' XB=0.050,1.950,10.850,11.250,0.750,0.850 SURF_ID='Gypsum wall' /
&OBST ID='Internal stairs_15' XB=-1.950,-0.050,9.850,10.250,7.950,8.050 SURF_ID='Gypsum wall' /
&OBST ID='Internal stairs_16' XB=-1.950,-0.050,13.050,13.450,2.250,2.350 SURF_ID='Gypsum wall' /
&OBST ID='Internal stairs_17' XB=-1.950,-0.050,12.250,12.550,6.550,6.650 SURF_ID='Gypsum wall' /
&OBST ID='Internal stairs_18' XB=-1.950,-0.050,12.850,13.450,2.350,2.450 SURF_ID='Gypsum wall' /
&OBST ID='Internal stairs_19' XB=0.050,1.950,11.950,12.550,5.650,5.750 SURF_ID='Gypsum wall' /
! ... 78 like lines cut
! OBST: XB: 8 voxels, resolution 0.100 m, in 0 s (s:0 c:0 fb:0, g1:0, g2:0)
&OBST ID='Panels transparent_0' XB=1.150,1.550,-1.550,-1.450,9.550,12.250 SURF_ID='Glass pane' /
&OBST ID='Panels transparent_1' XB=-1.150,1.150,-1.550,-1.450,9.550,12.350 SURF_ID='Glass pane' /
&OBST ID='Panels transparent_2' XB=-1.550,-1.150,1.450,1.550,9.550,12.250 SURF_ID='Glass pane' /
&OBST ID='Panels transparent_3' XB=1.150,1.550,1.450,1.550,9.550,12.250 SURF_ID='Glass pane' /
&OBST ID='Panels transparent_4' XB=-1.150,1.150,1.450,1.550,9.550,12.350 SURF_ID='Glass pane' /
&OBST ID='Panels transparent_5' XB=-1.550,-1.150,-1.550,-1.450,9.550,12.250 SURF_ID='Glass pane' /
&OBST ID='Panels transparent_6' XB=-1.550,-1.450,-1.450,1.450,9.550,12.250 SURF_ID='Glass pane' /
&OBST ID='Panels transparent_7' XB=1.450,1.550,-1.450,1.450,9.550,12.250 SURF_ID='Glass pane' /
! OBST: XB: 840 voxels, resolution 0.100 m, in 39 s (s:7 c:0 fb:2, g1:19, g2:3)
&OBST ID='Walls int ext_0' XB=-28.550,-18.850,-2.350,-2.250,4.350,7.550 SURF_ID='Gypsum wall' /
&OBST ID='Walls int ext_1' XB=-4.550,-2.550,-13.850,-13.750,-0.050,1.150 SURF_ID='Gypsum wall' /
&OBST ID='Walls int ext_2' XB=-4.550,-0.550,-13.850,-13.750,4.350,5.550 SURF_ID='Gypsum wall' /
&OBST ID='Walls int ext_3' XB=20.450,24.450,-13.850,-13.750,-0.050,1.150 SURF_ID='Gypsum wall' /
&OBST ID='Walls int ext_4' XB=20.450,24.450,-13.850,-13.750,4.350,5.550 SURF_ID='Gypsum wall' /
&OBST ID='Walls int ext_5' XB=-1.450,-1.350,1.850,1.950,4.350,5.550 SURF_ID='Gypsum wall' /
&OBST ID='Walls int ext_6' XB=1.350,2.550,4.450,4.550,2.150,3.150 SURF_ID='Gypsum wall' /
&OBST ID='Walls int ext_7' XB=1.450,2.650,4.450,4.550,6.550,7.550 SURF_ID='Gypsum wall' /
&OBST ID='Walls int ext_8' XB=-4.950,-1.050,4.450,4.550,-0.050,3.150 SURF_ID='Gypsum wall' /
&OBST ID='Walls int ext_9' XB=-4.950,-1.050,4.450,4.550,4.350,7.550 SURF_ID='Gypsum wall' /
&OBST ID='Walls int ext_10' XB=17.450,17.550,13.550,13.650,4.350,7.550 SURF_ID='Gypsum wall' /
&OBST ID='Walls int ext_11' XB=14.550,15.150,-13.850,-13.750,-0.050,3.150 SURF_ID='Gypsum wall' /
&OBST ID='Walls int ext_12' XB=14.550,15.150,-13.850,-13.750,4.350,7.550 SURF_ID='Gypsum wall' /
&OBST ID='Walls int ext_13' XB=-5.250,-5.050,-4.650,-4.550,8.450,11.350 SURF_ID='Gypsum wall' /
&OBST ID='Walls int ext_14' XB=16.150,16.250,-2.550,-2.450,4.350,7.550 SURF_ID='Gypsum wall' /
&OBST ID='Walls int ext_15' XB=1.050,2.050,7.850,7.950,-0.050,3.150 SURF_ID='Gypsum wall' /
&OBST ID='Walls int ext_16' XB=1.050,2.050,7.850,7.950,4.350,7.550 SURF_ID='Gypsum wall' /
&OBST ID='Walls int ext_17' XB=-17.550,-17.350,-3.750,-3.650,4.350,7.550 SURF_ID='Gypsum wall' /
&OBST ID='Walls int ext_18' XB=-28.550,-18.850,2.250,2.350,4.350,7.550 SURF_ID='Gypsum wall' /
&OBST ID='Walls int ext_19' XB=0.550,4.550,-13.850,-13.750,4.350,5.550 SURF_ID='Gypsum wall' /
! ... 820 like lines cut
! OBST: XB: 37 voxels, resolution 0.100 m, in 0 s (s:0 c:0 fb:0, g1:0, g2:0)
&OBST ID='Walls stairs_0' XB=-0.150,0.150,9.950,10.150,4.250,7.950 SURF_ID='Gypsum wall' /
&OBST ID='Walls stairs_1' XB=-0.150,0.150,11.850,11.950,5.250,6.850 SURF_ID='Gypsum wall' /
&OBST ID='Walls stairs_2' XB=-0.150,0.150,13.150,13.350,6.150,6.350 SURF_ID='Gypsum wall' /
&OBST ID='Walls stairs_3' XB=-0.150,0.150,9.450,9.650,4.350,8.250 SURF_ID='Gypsum wall' /
&OBST ID='Walls stairs_4' XB=-0.150,0.150,10.350,10.450,4.450,7.750 SURF_ID='Gypsum wall' /
&OBST ID='Walls stairs_5' XB=-0.150,0.150,9.650,9.850,4.250,8.150 SURF_ID='Gypsum wall' /
&OBST ID='Walls stairs_6' XB=-0.150,0.150,11.450,11.550,5.050,7.150 SURF_ID='Gypsum wall' /
&OBST ID='Walls stairs_7' XB=-0.150,0.150,10.450,10.550,4.450,7.650 SURF_ID='Gypsum wall' /
&OBST ID='Walls stairs_8' XB=-0.150,0.150,12.050,12.150,5.350,5.550 SURF_ID='Gypsum wall' /
&OBST ID='Walls stairs_9' XB=-0.150,0.150,12.050,12.150,6.550,6.750 SURF_ID='Gypsum wall' /
&OBST ID='Walls stairs_10' XB=-0.150,0.150,11.950,12.050,5.350,6.850 SURF_ID='Gypsum wall' /
&OBST ID='Walls stairs_11' XB=-0.150,0.150,12.250,12.350,5.550,6.550 SURF_ID='Gypsum wall' /
&OBST ID='Walls stairs_12' XB=-0.150,0.150,11.250,11.350,4.950,7.250 SURF_ID='Gypsum wall' /
&OBST ID='Walls stairs_13' XB=-0.150,0.150,11.750,11.850,5.250,6.950 SURF_ID='Gypsum wall' /
&OBST ID='Walls stairs_14' XB=-0.150,0.150,12.850,13.050,5.950,6.350 SURF_ID='Gypsum wall' /
&OBST ID='Walls stairs_15' XB=-0.150,0.150,9.850,9.950,4.250,8.050 SURF_ID='Gypsum wall' /
&OBST ID='Walls stairs_16' XB=-0.150,0.150,12.650,12.850,5.850,6.350 SURF_ID='Gypsum wall' /
&OBST ID='Walls stairs_17' XB=-0.150,0.150,12.350,12.450,5.650,6.550 SURF_ID='Gypsum wall' /
&OBST ID='Walls stairs_18' XB=1.550,1.950,9.350,9.450,4.350,8.550 SURF_ID='Gypsum wall' /
&OBST ID='Walls stairs_19' XB=-0.150,0.150,12.450,12.550,5.650,6.450 SURF_ID='Gypsum wall' /
! ... 17 like lines cut
! OBST: XB: 99 voxels, resolution 0.100 m, in 4 s (s:1 c:0 fb:0, g1:0, g2:0)
&OBST ID='Window panes_0' XB=10.550,12.350,13.750,13.850,1.050,3.150 SURF_ID='Glass pane' /
&OBST ID='Window panes_1' XB=10.550,12.350,13.750,13.850,5.450,7.550 SURF_ID='Glass pane' /
&OBST ID='Window panes_2' XB=-24.450,-20.450,13.750,13.850,1.050,3.150 SURF_ID='Glass pane' /
&OBST ID='Window panes_3' XB=-24.450,-20.450,13.750,13.850,5.450,7.550 SURF_ID='Glass pane' /
&OBST ID='Window panes_4' XB=20.450,24.450,-13.750,-13.650,1.050,3.150 SURF_ID='Glass pane' /
&OBST ID='Window panes_5' XB=20.450,24.450,-13.750,-13.650,5.450,7.550 SURF_ID='Glass pane' /
&OBST ID='Window panes_6' XB=25.550,29.550,13.750,13.850,1.050,3.150 SURF_ID='Glass pane' /
&OBST ID='Window panes_7' XB=25.550,29.550,13.750,13.850,5.450,7.550 SURF_ID='Glass pane' /
&OBST ID='Window panes_8' XB=15.450,19.450,13.750,13.850,1.050,3.150 SURF_ID='Glass pane' /
&OBST ID='Window panes_9' XB=15.450,19.450,13.750,13.850,5.450,7.550 SURF_ID='Glass pane' /
&OBST ID='Window panes_10' XB=-29.550,-25.550,-13.750,-13.650,1.050,3.150 SURF_ID='Glass pane' /
&OBST ID='Window panes_11' XB=-29.550,-25.550,-13.750,-13.650,5.450,7.550 SURF_ID='Glass pane' /
&OBST ID='Window panes_12' XB=-12.350,-10.550,-13.750,-13.650,1.050,3.150 SURF_ID='Glass pane' /
&OBST ID='Window panes_13' XB=-12.350,-10.550,-13.750,-13.650,5.450,7.550 SURF_ID='Glass pane' /
&OBST ID='Window panes_14' XB=-19.450,-15.450,13.750,13.850,1.050,3.150 SURF_ID='Glass pane' /
&OBST ID='Window panes_15' XB=-19.450,-15.450,13.750,13.850,5.450,7.550 SURF_ID='Glass pane' /
&OBST ID='Window panes_16' XB=10.550,12.350,-13.750,-13.650,1.050,3.150 SURF_ID='Glass pane' /
&OBST ID='Window panes_17' XB=10.550,12.350,-13.750,-13.650,5.450,7.550 SURF_ID='Glass pane' /
&OBST ID='Window panes_18' XB=-12.350,-10.550,13.750,13.850,1.050,3.150 SURF_ID='Glass pane' /
&OBST ID='Window panes_19' XB=-12.350,-10.550,13.750,13.850,5.450,7.550 SURF_ID='Glass pane' /
! ... 79 like lines cut
&OBST ID='Burner' FYI='5 m2 on fire' SURF_ID='Burner' XB=6.500,7.500,-1.500,-0.500,0.000,1.000 /
! Domain: This is the domain of simulation
! MESH: IJK: 72576 mesh cells of size 0.500x0.500x0.500 m
&MESH ID='Domain +1' IJK=42,64,27 XB=10.500,31.500,-15.000,17.000,0.000,13.500 /
! MESH: IJK: 72576 mesh cells of size 0.500x0.500x0.500 m
&MESH ID='Domain -1' IJK=42,64,27 XB=-31.500,-10.500,-15.000,17.000,0.000,13.500 /
! MESH: IJK: 72576 mesh cells of size 0.500x0.500x0.500 m
&MESH ID='Domain 0' IJK=42,64,27 XB=-10.500,10.500,-15.000,17.000,0.000,13.500 /
! VENT: PB*: 3 planes
&VENT ID='Domain bc_0' PBY=-15.000 SURF_ID='OPEN' /
&VENT ID='Domain bc_1' PBY=17.000 SURF_ID='OPEN' /
&VENT ID='Domain bc_2' PBZ=13.500 SURF_ID='OPEN' /
&VENT ID='Ground' SURF_ID='INERT' XB=-40.295,40.295,-23.796,23.804,0.000,0.000 /
! Output: group of namelists
! SLCF: PB*: 2 planes
&SLCF ID='Slcf temp_0' PBX=0.000 QUANTITY='TEMPERATURE' VECTOR=.TRUE. /
&SLCF ID='Slcf temp_1' PBY=-0.000 QUANTITY='TEMPERATURE' VECTOR=.TRUE. /
! SLCF: PB*: 2 planes
&SLCF ID='Slcf visibility_0' PBX=0.000 QUANTITY='VISIBILITY' VECTOR=.FALSE. /
&SLCF ID='Slcf visibility_1' PBY=-0.000 QUANTITY='VISIBILITY' VECTOR=.FALSE. /
&DEVC ID='Smoke detector' INITIAL_STATE=.FALSE. LATCH=.TRUE. PROP_ID='acme smoke detector' XYZ=5.000,0.000,2.500 /
! Roof: group of namelists
! OBST: XB: 186 voxels, resolution 0.100 m, in 35 s (s:8 c:0 fb:2, g1:14, g2:0)
&OBST ID='Floors_0' XB=-30.350,-1.850,7.850,13.850,4.250,4.350 SURF_ID='Gypsum wall' /
&OBST ID='Floors_1' XB=1.850,30.350,7.850,13.850,4.250,4.350 SURF_ID='Gypsum wall' /
&OBST ID='Floors_2' XB=-30.250,-1.350,-1.350,1.350,7.450,7.550 SURF_ID='Gypsum wall' /
&OBST ID='Floors_3' XB=1.350,30.250,-1.350,1.350,7.450,7.550 SURF_ID='Gypsum wall' /
&OBST ID='Floors_4' XB=-30.350,-1.950,11.850,13.350,4.350,4.450 SURF_ID='Gypsum wall' /
&OBST ID='Floors_5' XB=1.950,30.350,11.850,13.350,4.350,4.450 SURF_ID='Gypsum wall' /
&OBST ID='Floors_6' XB=-1.350,1.350,-13.750,-4.450,2.650,3.050 SURF_ID='Gypsum wall' /
&OBST ID='Floors_7' XB=-30.350,30.350,2.150,7.850,4.250,4.450 SURF_ID='Gypsum wall' /
&OBST ID='Floors_8' XB=-30.350,30.350,-13.850,-2.150,3.050,4.450 SURF_ID='Gypsum wall' /
&OBST ID='Floors_9' XB=-30.350,30.350,2.150,9.650,3.050,4.250 SURF_ID='Gypsum wall' /
&OBST ID='Floors_10' XB=-30.350,30.350,-13.850,-1.450,7.550,8.550 SURF_ID='Gypsum wall' /
&OBST ID='Floors_11' XB=-30.350,-1.850,7.850,11.850,4.350,4.450 SURF_ID='Gypsum wall' /
&OBST ID='Floors_12' XB=1.850,30.350,7.850,11.850,4.350,4.450 SURF_ID='Gypsum wall' /
&OBST ID='Floors_13' XB=-29.850,-1.350,-1.450,1.450,7.150,7.450 SURF_ID='Gypsum wall' /
&OBST ID='Floors_14' XB=1.350,29.850,-1.450,1.450,7.150,7.450 SURF_ID='Gypsum wall' /
&OBST ID='Floors_15' XB=-3.550,3.550,2.250,4.450,7.150,7.550 SURF_ID='Gypsum wall' /
&OBST ID='Floors_16' XB=-30.350,-1.850,9.650,13.850,3.050,4.250 SURF_ID='Gypsum wall' /
&OBST ID='Floors_17' XB=1.850,30.350,9.650,13.850,3.050,4.250 SURF_ID='Gypsum wall' /
&OBST ID='Floors_18' XB=-30.350,30.350,1.450,9.350,7.550,8.550 SURF_ID='Gypsum wall' /
&OBST ID='Floors_19' XB=-21.950,-2.050,-1.150,1.150,2.650,3.050 SURF_ID='Gypsum wall' /
! ... 166 like lines cut
&DEVC ID='Roof break' FYI='Break the roof' QUANTITY='TEMPERATURE' SETPOINT=150.000 INITIAL_STATE=.TRUE. LATCH=.TRUE. XYZ=0.000,0.000,12.027 /
! OBST: XB: 106 voxels, resolution 0.100 m, in 1 s (s:0 c:0 fb:0, g1:0, g2:0)
&OBST ID='Roof round_0' XB=2.050,2.150,-4.650,13.650,12.050,12.150 SURF_ID='Gypsum wall' /
&OBST ID='Roof round_1' XB=-4.550,-4.250,-4.650,13.850,11.550,11.650 SURF_ID='Gypsum wall' /
&OBST ID='Roof round_2' XB=-2.150,-2.050,-4.650,13.650,12.050,12.150 SURF_ID='Gypsum wall' /
&OBST ID='Roof round_3' XB=4.250,4.550,-4.650,13.850,11.550,11.650 SURF_ID='Gypsum wall' /
&OBST ID='Roof round_4' XB=5.050,5.250,-4.650,13.850,11.250,11.350 SURF_ID='Gypsum wall' /
&OBST ID='Roof round_5' XB=4.850,5.050,-4.650,13.850,11.350,11.450 SURF_ID='Gypsum wall' /
&OBST ID='Roof round_6' XB=-3.450,-3.150,-4.650,13.850,11.850,11.950 SURF_ID='Gypsum wall' /
&OBST ID='Roof round_7' XB=-4.850,-4.550,-4.650,13.850,11.450,11.550 SURF_ID='Gypsum wall' /
&OBST ID='Roof round_8' XB=-3.550,-3.450,-4.650,13.050,11.850,11.950 SURF_ID='Gypsum wall' /
&OBST ID='Roof round_9' XB=-3.550,-3.450,13.350,13.850,11.850,11.950 SURF_ID='Gypsum wall' /
&OBST ID='Roof round_10' XB=-2.150,-2.050,13.450,15.450,12.150,12.250 SURF_ID='Gypsum wall' /
&OBST ID='Roof round_11' XB=-0.850,-0.750,-4.650,-2.350,12.250,12.350 SURF_ID='Gypsum wall' /
&OBST ID='Roof round_12' XB=-0.950,-0.650,-1.750,-1.550,12.250,12.350 SURF_ID='Gypsum wall' /
&OBST ID='Roof round_13' XB=-1.150,1.150,1.450,15.450,12.250,12.350 SURF_ID='Gypsum wall' /
&OBST ID='Roof round_14' XB=3.950,4.250,-4.650,13.850,11.650,11.750 SURF_ID='Gypsum wall' /
&OBST ID='Roof round_15' XB=2.650,3.050,-4.650,13.850,11.950,12.050 SURF_ID='Gypsum wall' /
&OBST ID='Roof round_16' XB=1.150,1.250,-4.650,-4.050,12.250,12.350 SURF_ID='Gypsum wall' /
&OBST ID='Roof round_17' XB=1.150,1.250,2.250,15.450,12.250,12.350 SURF_ID='Gypsum wall' /
&OBST ID='Roof round_18' XB=2.550,2.650,13.350,13.850,11.950,12.050 SURF_ID='Gypsum wall' /
&OBST ID='Roof round_19' XB=-3.050,-2.650,-4.650,13.850,11.950,12.050 SURF_ID='Gypsum wall' /
! ... 86 like lines cut
&OBST ID='Roof transparent' SURF_ID='Glass pane' XB=-1.550,1.550,-1.550,1.550,12.174,12.360 DEVC_ID='Roof break' /
&TAIL /
! Generated in 85 s.
