! Generated by BlenderFDS 3.0.0 on Blender 2.69 (sub 0)
! Date: Thu, 19 Dec 2013, 12:15:26
! File: /home/egissi/Documenti/Argomenti/BlenderFDS/svn/trunk/examples/uni-build/uni-build.blend

! HEAD: Free text 'Free text' appended
&HEAD CHID='uni-build_s1' TITLE='University building, scenario 1' /
&MATL ID='Gypsum plaster', CONDUCTIVITY=0.48,
      SPECIFIC_HEAT=0.84, DENSITY=1440. /
      Thermo-physical properties of gypsum plaster.

&PROP ID='acme smoke detector', QUANTITY='CHAMBER OBSCURATION',
      LENGTH=1.8, ACTIVATION_OBSCURATION=3.28 /
      
&ISOF QUANTITY='TEMPERATURE', VALUE(1)=60. /
&ISOF QUANTITY='VISIBILITY', VALUE(1)=10. /
&BNDF QUANTITY='ADIABATIC SURFACE TEMPERATURE' /
! End of free text
! TIME: Smokeview setup only: Set
&TIME T_BEGIN=0.0 T_END=0.0 /
&REAC FUEL='polyurethane' FYI='Polyurethane flexible foam (means), Tewarson SFPE Handbook 3rd ed, table 3-4.14, p. 3-112.' FORMULA='C1H1.75O0.25N0.065' CO_YIELD=0.027750 SOOT_YIELD=0.187500 HEAT_OF_COMBUSTION=25300.0 IDEAL=.TRUE. /
&DUMP RENDER_FILE='uni-build_s1.GE1' /
! SURF: TAU_Q: HRR(t) has a t² ramp
&SURF ID='Burner' FYI='Est.d area 5.00 m², HRR max 1500 kW, fast t² ramp (US)' RGB=204,0,2 HRRPUA=300.0 TAU_Q=-178.9 /
&SURF ID='Glass pane' RGB=0,204,201 TRANSPARENCY=0.20 /
&SURF ID='Gypsum wall' RGB=184,186,136 /
! Building: group of namelists
&OBST ID='Columns' SURF_ID='Gypsum wall' /
! OBST: XB: 8 voxels, size 0.100 m, in 0.019 s
&OBST ID='Fire doors_0' XB=-1.050,-0.050,7.850,7.950,0.000,2.200 FYI='Always closed' SURF_ID='Gypsum wall' /
&OBST ID='Fire doors_1' XB=-1.050,-0.050,7.850,7.950,4.500,6.700 FYI='Always closed' SURF_ID='Gypsum wall' /
&OBST ID='Fire doors_2' XB=0.050,0.950,7.850,7.950,0.000,2.200 FYI='Always closed' SURF_ID='Gypsum wall' /
&OBST ID='Fire doors_3' XB=0.050,0.950,7.850,7.950,4.500,6.700 FYI='Always closed' SURF_ID='Gypsum wall' /
&OBST ID='Fire doors_4' XB=-1.050,-0.050,4.450,4.550,0.000,2.200 FYI='Always closed' SURF_ID='Gypsum wall' /
&OBST ID='Fire doors_5' XB=-1.050,-0.050,4.450,4.550,4.500,6.700 FYI='Always closed' SURF_ID='Gypsum wall' /
&OBST ID='Fire doors_6' XB=0.050,0.950,4.450,4.550,0.000,2.200 FYI='Always closed' SURF_ID='Gypsum wall' /
&OBST ID='Fire doors_7' XB=0.050,0.950,4.450,4.550,4.500,6.700 FYI='Always closed' SURF_ID='Gypsum wall' /
! OBST: XB: 133 voxels, size 0.100 m, in 0.785 s
&OBST ID='Internal stairs_0' XB=-0.950,1.950,8.750,8.850,4.200,4.400 SURF_ID='Gypsum wall' /
&OBST ID='Internal stairs_1' XB=-0.150,1.950,13.350,13.450,2.000,2.200 SURF_ID='Gypsum wall' /
&OBST ID='Internal stairs_2' XB=0.150,1.950,10.150,10.250,4.400,4.600 SURF_ID='Gypsum wall' /
&OBST ID='Internal stairs_3' XB=0.150,1.950,10.350,10.450,4.500,4.800 SURF_ID='Gypsum wall' /
&OBST ID='Internal stairs_4' XB=-1.950,-0.150,10.750,10.850,3.600,3.700 SURF_ID='Gypsum wall' /
&OBST ID='Internal stairs_5' XB=-1.950,-0.150,10.750,10.850,7.500,7.700 SURF_ID='Gypsum wall' /
&OBST ID='Internal stairs_6' XB=0.150,1.950,11.850,11.950,5.400,5.600 SURF_ID='Gypsum wall' /
&OBST ID='Internal stairs_7' XB=-1.950,-0.150,10.650,10.750,3.600,3.900 SURF_ID='Gypsum wall' /
&OBST ID='Internal stairs_8' XB=-1.950,-0.150,10.650,10.750,7.500,7.800 SURF_ID='Gypsum wall' /
&OBST ID='Internal stairs_9' XB=0.150,1.950,12.550,12.650,1.500,1.900 SURF_ID='Gypsum wall' /
&OBST ID='Internal stairs_10' XB=0.150,1.950,12.550,12.650,5.800,6.100 SURF_ID='Gypsum wall' /
&OBST ID='Internal stairs_11' XB=-1.050,0.350,9.350,9.450,4.300,4.400 SURF_ID='Gypsum wall' /
&OBST ID='Internal stairs_12' XB=-1.950,-0.150,9.350,9.450,8.300,8.500 SURF_ID='Gypsum wall' /
&OBST ID='Internal stairs_13' XB=-1.950,-0.150,11.050,11.150,3.400,3.600 SURF_ID='Gypsum wall' /
&OBST ID='Internal stairs_14' XB=-1.950,-0.150,11.050,11.150,7.300,7.500 SURF_ID='Gypsum wall' /
&OBST ID='Internal stairs_15' XB=0.150,1.950,12.650,12.750,1.600,1.900 SURF_ID='Gypsum wall' /
&OBST ID='Internal stairs_16' XB=0.150,1.950,10.250,10.450,0.200,0.500 SURF_ID='Gypsum wall' /
&OBST ID='Internal stairs_17' XB=0.150,1.950,10.250,10.350,4.400,4.800 SURF_ID='Gypsum wall' /
&OBST ID='Internal stairs_18' XB=0.150,1.950,11.150,11.250,0.700,1.000 SURF_ID='Gypsum wall' /
&OBST ID='Internal stairs_19' XB=-1.950,-0.150,10.250,10.350,3.900,4.100 SURF_ID='Gypsum wall' /
! ... 113 like lines cut
! OBST: XB: 8 voxels, size 0.100 m, in 0.035 s
&OBST ID='Panels transparent_0' XB=1.150,1.550,-1.550,-1.450,9.600,12.200 SURF_ID='Glass pane' /
&OBST ID='Panels transparent_1' XB=-1.150,1.150,-1.550,-1.450,9.600,12.300 SURF_ID='Glass pane' /
&OBST ID='Panels transparent_2' XB=-1.550,-1.150,1.450,1.550,9.600,12.200 SURF_ID='Glass pane' /
&OBST ID='Panels transparent_3' XB=1.150,1.550,1.450,1.550,9.600,12.200 SURF_ID='Glass pane' /
&OBST ID='Panels transparent_4' XB=-1.150,1.150,1.450,1.550,9.600,12.300 SURF_ID='Glass pane' /
&OBST ID='Panels transparent_5' XB=-1.550,-1.150,-1.550,-1.450,9.600,12.200 SURF_ID='Glass pane' /
&OBST ID='Panels transparent_6' XB=-1.550,-1.450,-1.450,1.450,9.600,12.200 SURF_ID='Glass pane' /
&OBST ID='Panels transparent_7' XB=1.450,1.550,-1.450,1.450,9.600,12.200 SURF_ID='Glass pane' /
&OBST ID='Walls int ext' SURF_ID='Gypsum wall' /
! OBST: XB: 37 voxels, size 0.100 m, in 0.024 s
&OBST ID='Walls stairs_0' XB=-0.150,0.150,11.850,11.950,5.300,6.800 SURF_ID='Gypsum wall' /
&OBST ID='Walls stairs_1' XB=-0.150,0.150,11.950,12.050,5.400,6.800 SURF_ID='Gypsum wall' /
&OBST ID='Walls stairs_2' XB=-0.150,0.150,10.350,10.450,4.500,7.700 SURF_ID='Gypsum wall' /
&OBST ID='Walls stairs_3' XB=-0.150,0.150,10.450,10.550,4.500,7.600 SURF_ID='Gypsum wall' /
&OBST ID='Walls stairs_4' XB=0.250,1.550,9.350,9.450,6.600,8.500 SURF_ID='Gypsum wall' /
&OBST ID='Walls stairs_5' XB=-0.150,0.150,9.950,10.150,4.300,7.900 SURF_ID='Gypsum wall' /
&OBST ID='Walls stairs_6' XB=-0.150,0.150,11.350,11.450,5.000,7.100 SURF_ID='Gypsum wall' /
&OBST ID='Walls stairs_7' XB=-0.150,0.250,9.350,9.450,4.400,8.500 SURF_ID='Gypsum wall' /
&OBST ID='Walls stairs_8' XB=-0.150,0.150,13.050,13.150,6.100,6.300 SURF_ID='Gypsum wall' /
&OBST ID='Walls stairs_9' XB=1.550,1.950,9.350,9.450,4.400,8.500 SURF_ID='Gypsum wall' /
&OBST ID='Walls stairs_10' XB=-0.150,0.150,10.850,10.950,4.700,7.400 SURF_ID='Gypsum wall' /
&OBST ID='Walls stairs_11' XB=-0.150,0.150,12.450,12.550,5.700,6.400 SURF_ID='Gypsum wall' /
&OBST ID='Walls stairs_12' XB=-0.150,0.150,12.350,12.450,5.700,6.500 SURF_ID='Gypsum wall' /
&OBST ID='Walls stairs_13' XB=-0.150,0.150,10.650,10.750,4.600,7.500 SURF_ID='Gypsum wall' /
&OBST ID='Walls stairs_14' XB=-0.150,0.150,10.950,11.050,4.800,7.400 SURF_ID='Gypsum wall' /
&OBST ID='Walls stairs_15' XB=-0.150,0.150,12.050,12.150,5.400,5.500 SURF_ID='Gypsum wall' /
&OBST ID='Walls stairs_16' XB=-0.150,0.150,12.050,12.150,6.600,6.700 SURF_ID='Gypsum wall' /
&OBST ID='Walls stairs_17' XB=-0.150,0.150,11.650,11.750,5.200,6.900 SURF_ID='Gypsum wall' /
&OBST ID='Walls stairs_18' XB=-0.150,0.150,12.150,12.250,5.600,6.600 SURF_ID='Gypsum wall' /
&OBST ID='Walls stairs_19' XB=-0.150,0.150,11.550,11.650,5.200,7.000 SURF_ID='Gypsum wall' /
! ... 17 like lines cut
&OBST ID='Window panes' SURF_ID='Glass pane' /
&OBST ID='Burner' FYI='5 m2 on fire' SURF_ID='Burner' XB=6.500,7.500,-1.500,-0.500,0.000,1.000 /
! Domain: This is the domain of simulation
! MESH: IJK: 1008000 mesh cells of size 0.194x0.200x0.216 m
&MESH ID='Domain +1' IJK=105,160,60 XB=10.500,31.500,-14.817,16.183,0.000,12.968 /
! MESH: IJK: 1008000 mesh cells of size 0.194x0.200x0.216 m
&MESH ID='Domain -1' IJK=105,160,60 XB=-31.500,-10.500,-14.817,16.183,0.000,12.968 /
! MESH: IJK: 1008000 mesh cells of size 0.194x0.200x0.216 m
&MESH ID='Domain 0' IJK=105,160,60 XB=-10.500,10.500,-14.817,16.183,0.000,12.968 /
! VENT: XB: 5 faces
&VENT ID='External BC_0' XB=-31.500,31.500,-14.817,16.183,12.968,12.968 SURF_ID='OPEN' /
&VENT ID='External BC_1' XB=-31.500,31.500,-14.817,-14.817,0.000,12.968 SURF_ID='OPEN' /
&VENT ID='External BC_2' XB=-31.500,-31.500,-14.817,16.183,0.000,12.968 SURF_ID='OPEN' /
&VENT ID='External BC_3' XB=-31.500,31.500,16.183,16.183,0.000,12.968 SURF_ID='OPEN' /
&VENT ID='External BC_4' XB=31.500,31.500,-14.817,16.183,0.000,12.968 SURF_ID='OPEN' /
&VENT ID='Ground' SURF_ID='INERT' XB=-40.295,40.295,-23.796,23.804,0.000,0.000 /
! Output: group of namelists
! SLCF: PB*: 2 planes
&SLCF ID='Slcf temp_0' PBX=0.000 QUANTITY='TEMPERATURE' VECTOR=.TRUE. /
&SLCF ID='Slcf temp_1' PBY=-0.000 QUANTITY='TEMPERATURE' VECTOR=.TRUE. /
! SLCF: PB*: 2 planes
&SLCF ID='Slcf visibility_0' PBX=0.000 QUANTITY='VISIBILITY' VECTOR=.TRUE. /
&SLCF ID='Slcf visibility_1' PBY=-0.000 QUANTITY='VISIBILITY' VECTOR=.TRUE. /
&DEVC ID='Smoke detector' INITIAL_STATE=.FALSE. LATCH=.TRUE. PROP_ID='acme smoke detector' XYZ=5.000,0.000,2.500 /
! Roof: group of namelists
&OBST ID='Floors' SURF_ID='Gypsum wall' /
&DEVC ID='Roof break' FYI='Break the roof' QUANTITY='TEMPERATURE' SETPOINT=150.0 INITIAL_STATE=.TRUE. LATCH=.TRUE. XYZ=0.000,0.000,12.027 /
&OBST ID='Roof round' SURF_ID='Gypsum wall' /
&OBST ID='Roof transparent' SURF_ID='Glass pane' XB=-1.550,1.550,-1.550,1.550,12.174,12.360 DEVC_ID='Roof break' /
&TAIL /
